
  EPA STORM WATER MANAGEMENT MODEL - VERSION 5.2 (Build 5.2.4)
  ------------------------------------------------------------

  A site surface drainage model. 
  See Site_Drainage_Model.txt for more details. 
  
  ****************
  Analysis Options
  ****************
  Flow Units ............... CFS
  Process Models:
    Rainfall/Runoff ........ YES
    RDII ................... NO
    Snowmelt ............... NO
    Groundwater ............ NO
    Flow Routing ........... YES
    Ponding Allowed ........ NO
    Water Quality .......... YES
  Infiltration Method ...... HORTON
  Flow Routing Method ...... DYNWAVE
  Surcharge Method ......... EXTRAN
  Starting Date ............ 01/01/1998 00:00:00
  Ending Date .............. 01/01/1998 06:00:00
  Antecedent Dry Days ...... 5.0
  Report Time Step ......... 00:01:00
  Wet Time Step ............ 00:01:00
  Dry Time Step ............ 01:00:00
  Routing Time Step ........ 15.00 sec
  Variable Time Step ....... YES
  Maximum Trials ........... 8
  Number of Threads ........ 1
  Head Tolerance ........... 0.005000 ft
  
  
  **************************        Volume         Depth
  Runoff Quantity Continuity     acre-feet        inches
  **************************     ---------       -------
  Total Precipitation ......        23.690         9.830
  Evaporation Loss .........         0.000         0.000
  Infiltration Loss ........         0.888         0.369
  Surface Runoff ...........        21.799         9.045
  Final Storage ............         1.098         0.456
  Continuity Error (%) .....        -0.398
  
  
  **************************           TSS
  Runoff Quality Continuity            lbs
  **************************    ----------
  Initial Buildup ..........      1199.219
  Surface Buildup ..........         0.000
  Wet Deposition ...........         0.000
  Sweeping Removal .........         0.000
  Infiltration Loss ........         0.000
  BMP Removal ..............         0.000
  Surface Runoff ...........      1199.219
  Remaining Buildup ........         0.000
  Continuity Error (%) .....         0.000
  
  
  **************************        Volume        Volume
  Flow Routing Continuity        acre-feet      10^6 gal
  **************************     ---------     ---------
  Dry Weather Inflow .......         0.000         0.000
  Wet Weather Inflow .......        21.704         7.072
  Groundwater Inflow .......         0.000         0.000
  RDII Inflow ..............         0.000         0.000
  External Inflow ..........         0.000         0.000
  External Outflow .........        10.513         3.426
  Flooding Loss ............        10.307         3.359
  Evaporation Loss .........         0.000         0.000
  Exfiltration Loss ........         0.000         0.000
  Initial Stored Volume ....         0.000         0.000
  Final Stored Volume ......         0.898         0.293
  Continuity Error (%) .....        -0.064
  
  
  **************************           TSS
  Quality Routing Continuity           lbs
  **************************    ----------
  Dry Weather Inflow .......         0.000
  Wet Weather Inflow .......      1188.600
  Groundwater Inflow .......         0.000
  RDII Inflow ..............         0.000
  External Inflow ..........         0.000
  External Outflow .........      1150.401
  Flooding Loss ............        56.515
  Exfiltration Loss ........         0.000
  Mass Reacted .............         0.000
  Initial Stored Mass ......         0.000
  Final Stored Mass ........         0.135
  Continuity Error (%) .....        -1.552
  
  
  *************************
  Highest Continuity Errors
  *************************
  Node J9 (2.65%)
  Node J5 (2.23%)
  Node J10 (1.78%)
  
  
  ***************************
  Time-Step Critical Elements
  ***************************
  Link C7 (71.18%)
  Link C11 (27.00%)
  Link C3 (1.22%)
  
  
  ********************************
  Highest Flow Instability Indexes
  ********************************
  Link C4 (2)
  Link C11 (1)
  
  
  *********************************
  Most Frequent Nonconverging Nodes
  *********************************
  Convergence obtained at all time steps.
  
  
  *************************
  Routing Time Step Summary
  *************************
  Minimum Time Step           :     0.33 sec
  Average Time Step           :     3.12 sec
  Maximum Time Step           :    15.00 sec
  % of Time in Steady State   :     0.00
  Average Iterations per Step :     2.02
  % of Steps Not Converging   :     0.00
  Time Step Frequencies       :
     15.000 -  7.597 sec      :     1.74 %
      7.597 -  3.848 sec      :    14.20 %
      3.848 -  1.949 sec      :    83.45 %
      1.949 -  0.987 sec      :     0.44 %
      0.987 -  0.500 sec      :     0.17 %
  
  
  ***************************
  Subcatchment Runoff Summary
  ***************************
  
  ------------------------------------------------------------------------------------------------------------------------------
                            Total      Total      Total      Total     Imperv       Perv      Total       Total     Peak  Runoff
                           Precip      Runon       Evap      Infil     Runoff     Runoff     Runoff      Runoff   Runoff   Coeff
  Subcatchment                 in         in         in         in         in         in         in    10^6 gal      CFS
  ------------------------------------------------------------------------------------------------------------------------------
  S1                         9.83       0.00       0.00       0.37       5.52       3.53       9.05        1.12   152.32   0.921
  S2                         9.83       0.00       0.00       0.32       6.11       3.05       9.16        1.18   160.18   0.932
  S3                         9.83       0.00       0.00       0.52       3.85       4.95       8.80        0.89   123.64   0.895
  S4                         9.83       0.00       0.00       0.43       4.86       4.11       8.96        1.65   226.81   0.912
  S5                         9.83       0.00       0.00       0.11       8.49       1.04       9.53        1.24   164.91   0.969
  S6                         9.83       0.00       0.00       0.04       9.19       0.43       9.62        0.52    68.24   0.978
  S7                         9.83       0.00       0.00       0.86       0.00       7.95       7.95        0.50    69.72   0.809
  
  
  ****************************
  Subcatchment Washoff Summary
  ****************************
  
  ----------------------------------
                                 TSS
  Subcatchment                   lbs
  ----------------------------------
  S1                         455.000
  S2                         192.145
  S3                          60.866
  S4                         156.462
  S5                         230.446
  S6                         104.300
  S7                           0.000
  ----------------------------------
  System                    1199.219
  
  
  ******************
  Node Depth Summary
  ******************
  
  ---------------------------------------------------------------------------------
                                 Average  Maximum  Maximum  Time of Max    Reported
                                   Depth    Depth      HGL   Occurrence   Max Depth
  Node                 Type         Feet     Feet     Feet  days hr:min        Feet
  ---------------------------------------------------------------------------------
  J1                   JUNCTION     1.17     2.13  4975.13     0  00:35        2.13
  J2                   JUNCTION     0.86     1.00  4970.00     0  00:25        1.00
  J3                   JUNCTION     1.59     2.25  4975.25     0  00:25        2.25
  J4                   JUNCTION     1.28     1.88  4972.88     0  00:29        1.86
  J5                   JUNCTION     2.16     3.00  4972.80     0  00:29        3.00
  J6                   JUNCTION     2.51     3.50  4972.50     0  00:28        3.50
  J7                   JUNCTION     1.39     2.55  4974.05     0  00:35        2.55
  J8                   JUNCTION     1.95     2.43  4968.93     0  00:46        2.43
  J9                   JUNCTION     2.44     3.00  4967.80     0  00:28        3.00
  J10                  JUNCTION     2.58     3.00  4966.80     0  00:24        3.00
  J11                  JUNCTION     3.04     3.68  4966.68     0  00:32        3.68
  O1                   OUTFALL      3.04     3.68  4965.68     0  00:32        3.68
  
  
  *******************
  Node Inflow Summary
  *******************
  
  -------------------------------------------------------------------------------------------------
                                  Maximum  Maximum                  Lateral       Total        Flow
                                  Lateral    Total  Time of Max      Inflow      Inflow     Balance
                                   Inflow   Inflow   Occurrence      Volume      Volume       Error
  Node                 Type           CFS      CFS  days hr:min    10^6 gal    10^6 gal     Percent
  -------------------------------------------------------------------------------------------------
  J1                   JUNCTION   1.5e+02  1.5e+02     0  00:35        1.11        1.11       0.316
  J2                   JUNCTION   1.6e+02  1.6e+02     0  00:35        1.17        1.17       2.191
  J3                   JUNCTION   1.2e+02  1.2e+02     0  00:35        0.89        0.89       0.083
  J4                   JUNCTION         0       39     0  00:25           0       0.592       0.688
  J5                   JUNCTION         0  1.9e+02     0  00:35           0         1.7       2.276
  J6                   JUNCTION         0  3.2e+02     0  00:35           0        3.06       0.995
  J7                   JUNCTION   2.3e+02  2.3e+02     0  00:35        1.65        1.65       0.232
  J8                   JUNCTION         0  1.6e+02     0  00:45           0        2.46       0.543
  J9                   JUNCTION         0  1.6e+02     0  00:46           0        2.45       2.724
  J10                  JUNCTION   2.3e+02  3.8e+02     0  00:35        1.73        4.02       1.816
  J11                  JUNCTION        68  1.9e+02     0  00:31       0.515        3.46       0.964
  O1                   OUTFALL          0  1.8e+02     0  00:32           0        3.43       0.000
  
  
  **********************
  Node Surcharge Summary
  **********************
  
  Surcharging occurs when water rises above the top of the highest conduit.
  ---------------------------------------------------------------------
                                               Max. Height   Min. Depth
                                   Hours       Above Crown    Below Rim
  Node                 Type      Surcharged           Feet         Feet
  ---------------------------------------------------------------------
  J2                   JUNCTION        0.33          0.000        0.000
  J3                   JUNCTION        0.31          0.000        0.000
  J5                   JUNCTION        0.20          0.000        0.000
  J6                   JUNCTION        0.25          0.000        0.000
  J9                   JUNCTION        0.34          0.000        0.000
  J10                  JUNCTION        0.48          0.000        0.000
  
  
  *********************
  Node Flooding Summary
  *********************
  
  Flooding refers to all water that overflows a node, whether it ponds or not.
  --------------------------------------------------------------------------
                                                             Total   Maximum
                                 Maximum   Time of Max       Flood    Ponded
                        Hours       Rate    Occurrence      Volume     Depth
  Node                 Flooded       CFS   days hr:min    10^6 gal      Feet
  --------------------------------------------------------------------------
  J2                      0.33   1.2e+02      0  00:35       0.420     0.000
  J3                      0.31        87      0  00:35       0.297     0.000
  J5                      0.20        92      0  00:35       0.245     0.000
  J6                      0.25   1.7e+02      0  00:35       0.567     0.000
  J9                      0.34        16      0  00:46       0.096     0.000
  J10                     0.48     3e+02      0  00:35       1.734     0.000
  
  
  ***********************
  Outfall Loading Summary
  ***********************
  
  -------------------------------------------------------------------------
                         Flow       Avg       Max       Total         Total
                         Freq      Flow      Flow      Volume           TSS
  Outfall Node           Pcnt       CFS       CFS    10^6 gal           lbs
  -------------------------------------------------------------------------
  O1                    99.83   1.5e+02   1.8e+02       3.426      1152.463
  -------------------------------------------------------------------------
  System                99.83   1.5e+02   1.8e+02       3.426      1152.463
  
  
  ********************
  Link Flow Summary
  ********************
  
  -----------------------------------------------------------------------------
                                 Maximum  Time of Max   Maximum    Max/    Max/
                                  |Flow|   Occurrence   |Veloc|    Full    Full
  Link                 Type          CFS  days hr:min    ft/sec    Flow   Depth
  -----------------------------------------------------------------------------
  C1                   CONDUIT   1.5e+02     0  00:35      3.31    0.46    0.86
  C2                   CONDUIT        43     0  00:43      3.65    0.97    0.97
  C3                   CONDUIT        39     0  00:25     11.90    1.14    0.92
  C4                   CONDUIT        39     0  00:29      1.52    0.16    0.81
  C5                   CONDUIT        96     0  00:39      1.70    0.61    1.00
  C6                   CONDUIT   2.3e+02     0  00:35      4.31    0.67    0.93
  C7                   CONDUIT   1.6e+02     0  00:45     18.70    1.19    0.85
  C8                   CONDUIT   1.6e+02     0  00:46      3.12    0.62    0.91
  C9                   CONDUIT   1.4e+02     0  00:45      2.35    1.00    1.00
  C10                  CONDUIT   1.3e+02     0  00:53      2.25    0.72    1.00
  C11                  CONDUIT   1.8e+02     0  00:32     12.55    0.94    0.77
  
  
  ***************************
  Flow Classification Summary
  ***************************
  
  -------------------------------------------------------------------------------------
                      Adjusted    ---------- Fraction of Time in Flow Class ---------- 
                       /Actual         Up    Down  Sub   Sup   Up    Down  Norm  Inlet 
  Conduit               Length    Dry  Dry   Dry   Crit  Crit  Crit  Crit  Ltd   Ctrl  
  -------------------------------------------------------------------------------------
  C1                      1.00   0.00  0.00  0.00  1.00  0.00  0.00  0.00  0.92  0.00
  C2                      1.00   0.00  0.00  0.00  0.00  0.00  0.00  1.00  0.00  0.00
  C3                      1.00   0.00  0.00  0.00  0.22  0.78  0.00  0.00  0.04  0.00
  C4                      1.00   0.00  0.00  0.00  0.99  0.00  0.00  0.00  0.51  0.00
  C5                      1.00   0.00  0.00  0.00  1.00  0.00  0.00  0.00  0.39  0.00
  C6                      1.00   0.00  0.00  0.00  1.00  0.00  0.00  0.00  0.88  0.00
  C7                      1.00   0.00  0.00  0.00  0.01  0.99  0.00  0.00  0.05  0.00
  C8                      1.00   0.00  0.00  0.00  0.99  0.00  0.00  0.00  0.86  0.00
  C9                      1.00   0.00  0.01  0.00  0.99  0.00  0.00  0.00  0.37  0.00
  C10                     1.00   0.00  0.00  0.00  1.00  0.00  0.00  0.00  0.22  0.00
  C11                     1.00   0.00  0.00  0.00  0.02  0.98  0.00  0.00  0.32  0.00
  
  
  *************************
  Conduit Surcharge Summary
  *************************
  
  ----------------------------------------------------------------------------
                                                           Hours        Hours 
                         --------- Hours Full --------   Above Full   Capacity
  Conduit                Both Ends  Upstream  Dnstream   Normal Flow   Limited
  ----------------------------------------------------------------------------
  C1                          0.01      0.01      0.20      0.01         0.01
  C2                          0.01      0.33      0.01      0.01         0.01
  C3                          0.01      0.31      0.01      0.33         0.01
  C4                          0.01      0.01      0.20      0.01         0.01
  C5                          0.20      0.20      0.35      0.01         0.01
  C6                          0.01      0.01      0.35      0.01         0.01
  C7                          0.01      0.25      0.01      0.37         0.01
  C8                          0.01      0.01      0.34      0.01         0.01
  C9                          0.34      0.34      0.48      0.01         0.01
  C10                         0.48      0.48      0.61      0.01         0.01
  
  
  ***************************
  Link Pollutant Load Summary
  ***************************
  
  ----------------------------------
                                 TSS
  Link                           lbs
  ----------------------------------
  C1                         540.037
  C2                         186.654
  C3                          61.762
  C4                          74.657
  C5                         588.195
  C6                         179.962
  C7                         681.202
  C8                         748.436
  C9                         818.315
  C10                        940.788
  C11                       1152.463
  
  
  ********************************
  Subcatchment Time Series Results
  ********************************
  
  <<< Subcatchment S1 >>>
  -------------------------------------------------------------
  Date        Time        Precip.    Losses    Runoff       TSS
                            in/hr     in/hr       CFS      MG/L
  -------------------------------------------------------------
   01/01/1998 00:01:00      3.480     1.503    0.6296   180.293
   01/01/1998 00:02:00      3.480     1.503    3.1973   660.938
   01/01/1998 00:03:00      3.480     1.407    5.9882  1072.879
   01/01/1998 00:04:00      3.480     1.272    7.6451  1234.202
   01/01/1998 00:05:00      3.960     1.272    8.4471  1225.020
   01/01/1998 00:06:00      3.960     1.041    9.5350  1214.720
   01/01/1998 00:07:00      3.960     0.943   10.0000  1104.945
   01/01/1998 00:08:00      3.960     0.855   10.1910   969.789
   01/01/1998 00:09:00      3.960     0.776   10.2682   838.877
   01/01/1998 00:10:00      4.560     0.776   10.2992   721.399
   01/01/1998 00:11:00      4.560     0.642   11.2616   664.130
   01/01/1998 00:12:00      4.560     0.585   11.6446   567.665
   01/01/1998 00:13:00      4.560     0.534   11.8069   471.689
   01/01/1998 00:14:00      4.560     0.488   12.0917   392.923
   01/01/1998 00:15:00      7.680     0.488   12.5181   326.920
   01/01/1998 00:16:00      7.680     0.409   18.9822   363.531
   01/01/1998 00:17:00      7.680     0.376   22.3043   235.955
   01/01/1998 00:18:00      7.680     0.347   24.4007   107.963
   01/01/1998 00:19:00      7.680     0.320   26.0387    36.967
   01/01/1998 00:20:00      9.720     0.320   27.4393     9.303
   01/01/1998 00:21:00      9.720     0.274   33.2323     1.532
   01/01/1998 00:22:00      9.720     0.255   36.0971     0.000
   01/01/1998 00:23:00      9.720     0.238   37.8900     0.000
   01/01/1998 00:24:00      9.720     0.222   39.2022     0.000
   01/01/1998 00:25:00     18.840     0.222   40.2227     0.000
   01/01/1998 00:26:00     18.840     0.196   64.0651     0.000
   01/01/1998 00:27:00     18.840     0.185   72.6585     0.000
   01/01/1998 00:28:00     18.840     0.174   76.8333     0.000
   01/01/1998 00:29:00     18.840     0.165   79.5060     0.000
   01/01/1998 00:30:00     34.200     0.165   81.3746     0.000
   01/01/1998 00:31:00     34.200     0.150  126.9829     0.000
   01/01/1998 00:32:00     34.200     0.143  140.0187     0.000
   01/01/1998 00:33:00     34.200     0.138  146.1796     0.000
   01/01/1998 00:34:00     34.200     0.132  149.9362     0.000
   01/01/1998 00:35:00     14.160     0.132  152.3223     0.000
   01/01/1998 00:36:00     14.160     0.123   95.4417     0.000
   01/01/1998 00:37:00     14.160     0.120   81.1145     0.000
   01/01/1998 00:38:00     14.160     0.116   74.9228     0.000
   01/01/1998 00:39:00     14.160     0.113   71.4639     0.000
   01/01/1998 00:40:00      8.520     0.113   69.2804     0.000
   01/01/1998 00:41:00      8.520     0.108   53.4746     0.000
   01/01/1998 00:42:00      8.520     0.106   47.6862     0.000
   01/01/1998 00:43:00      8.520     0.104   44.7800     0.000
   01/01/1998 00:44:00      8.520     0.102   43.0266     0.000
   01/01/1998 00:45:00      5.040     0.102   41.8533     0.000
   01/01/1998 00:46:00      5.040     0.099   33.1045     0.000
   01/01/1998 00:47:00      5.040     0.098   29.4224     0.000
   01/01/1998 00:48:00      5.040     0.096   27.4579     0.000
   01/01/1998 00:49:00      5.040     0.095   26.2403     0.000
   01/01/1998 00:50:00      4.200     0.095   25.4082     0.000
   01/01/1998 00:51:00      4.200     0.094   23.0805     0.000
   01/01/1998 00:52:00      4.200     0.093   21.8569     0.000
   01/01/1998 00:53:00      4.200     0.092   21.1113     0.000
   01/01/1998 00:54:00      4.200     0.092   20.6061     0.000
   01/01/1998 00:55:00      3.600     0.092   20.2387     0.000
   01/01/1998 00:56:00      3.600     0.091   18.7894     0.000
   01/01/1998 00:57:00      3.600     0.090   18.0226     0.000
   01/01/1998 00:58:00      3.600     0.090   17.5584     0.000
   01/01/1998 00:59:00      3.600     0.089   17.2459     0.000
   01/01/1998 01:00:00      2.400     0.089   17.0187     0.000
  
  
  <<< Subcatchment S2 >>>
  -------------------------------------------------------------
  Date        Time        Precip.    Losses    Runoff       TSS
                            in/hr     in/hr       CFS      MG/L
  -------------------------------------------------------------
   01/01/1998 00:01:00      3.480     1.288    0.6680    69.098
   01/01/1998 00:02:00      3.480     1.288    3.4327   431.670
   01/01/1998 00:03:00      3.480     1.205    6.5769   881.494
   01/01/1998 00:04:00      3.480     1.089    8.5669  1044.827
   01/01/1998 00:05:00      3.960     1.089    9.5943   924.015
   01/01/1998 00:06:00      3.960     0.891   10.8902   765.039
   01/01/1998 00:07:00      3.960     0.808   11.4781   513.893
   01/01/1998 00:08:00      3.960     0.732   11.7341   318.102
   01/01/1998 00:09:00      3.960     0.665   11.8436   195.930
   01/01/1998 00:10:00      4.560     0.665   11.8902   125.035
   01/01/1998 00:11:00      4.560     0.550   12.9658    91.126
   01/01/1998 00:12:00      4.560     0.501   13.4192    61.144
   01/01/1998 00:13:00      4.560     0.457   13.6201    42.470
   01/01/1998 00:14:00      4.560     0.418   13.9322    31.435
   01/01/1998 00:15:00      7.680     0.418   14.3784    24.026
   01/01/1998 00:16:00      7.680     0.351   21.4679    24.649
   01/01/1998 00:17:00      7.680     0.322   25.1621    13.983
   01/01/1998 00:18:00      7.680     0.297   27.3960     5.049
   01/01/1998 00:19:00      7.680     0.274   29.0292     1.204
   01/01/1998 00:20:00      9.720     0.274   30.3484     0.178
   01/01/1998 00:21:00      9.720     0.235   36.4648     0.011
   01/01/1998 00:22:00      9.720     0.218   39.3975     0.000
   01/01/1998 00:23:00      9.720     0.204   41.1007     0.000
   01/01/1998 00:24:00      9.720     0.190   42.2604     0.000
   01/01/1998 00:25:00     18.840     0.190   43.1147     0.000
   01/01/1998 00:26:00     18.840     0.168   68.9704     0.000
   01/01/1998 00:27:00     18.840     0.158   78.2465     0.000
   01/01/1998 00:28:00     18.840     0.149   82.3416     0.000
   01/01/1998 00:29:00     18.840     0.142   84.7137     0.000
   01/01/1998 00:30:00     34.200     0.142   86.2627     0.000
   01/01/1998 00:31:00     34.200     0.128  135.8012     0.000
   01/01/1998 00:32:00     34.200     0.123  149.4961     0.000
   01/01/1998 00:33:00     34.200     0.118  155.1614     0.000
   01/01/1998 00:34:00     34.200     0.113  158.3080     0.000
   01/01/1998 00:35:00     14.160     0.113  160.1804     0.000
   01/01/1998 00:36:00     14.160     0.106   97.6752     0.000
   01/01/1998 00:37:00     14.160     0.102   82.1946     0.000
   01/01/1998 00:38:00     14.160     0.100   76.0039     0.000
   01/01/1998 00:39:00     14.160     0.097   72.8151     0.000
   01/01/1998 00:40:00      8.520     0.097   70.9239     0.000
   01/01/1998 00:41:00      8.520     0.092   54.1388     0.000
   01/01/1998 00:42:00      8.520     0.091   48.1448     0.000
   01/01/1998 00:43:00      8.520     0.089   45.3232     0.000
   01/01/1998 00:44:00      8.520     0.087   43.7366     0.000
   01/01/1998 00:45:00      5.040     0.087   42.7351     0.000
   01/01/1998 00:46:00      5.040     0.085   33.4721     0.000
   01/01/1998 00:47:00      5.040     0.084   29.6343     0.000
   01/01/1998 00:48:00      5.040     0.083   27.6809     0.000
   01/01/1998 00:49:00      5.040     0.082   26.5386     0.000
   01/01/1998 00:50:00      4.200     0.082   25.8002     0.000
   01/01/1998 00:51:00      4.200     0.080   23.4230     0.000
   01/01/1998 00:52:00      4.200     0.080   22.2078     0.000
   01/01/1998 00:53:00      4.200     0.079   21.5023     0.000
   01/01/1998 00:54:00      4.200     0.079   21.0494     0.000
   01/01/1998 00:55:00      3.600     0.079   20.7358     0.000
   01/01/1998 00:56:00      3.600     0.078   19.2400     0.000
   01/01/1998 00:57:00      3.600     0.077   18.4637     0.000
   01/01/1998 00:58:00      3.600     0.077   18.0133     0.000
   01/01/1998 00:59:00      3.600     0.077   17.7256     0.000
   01/01/1998 01:00:00      2.400     0.077   17.5271     0.000
  
  
  <<< Subcatchment S3 >>>
  -------------------------------------------------------------
  Date        Time        Precip.    Losses    Runoff       TSS
                            in/hr     in/hr       CFS      MG/L
  -------------------------------------------------------------
   01/01/1998 00:01:00      3.480     2.105    0.6034    32.419
   01/01/1998 00:02:00      3.480     2.105    2.8098   164.930
   01/01/1998 00:03:00      3.480     1.971    4.4140   261.769
   01/01/1998 00:04:00      3.480     1.781    4.9665   273.598
   01/01/1998 00:05:00      3.960     1.781    5.1249   253.431
   01/01/1998 00:06:00      3.960     1.458    5.6975   252.716
   01/01/1998 00:07:00      3.960     1.320    5.8481   223.792
   01/01/1998 00:08:00      3.960     1.197    5.8863   192.661
   01/01/1998 00:09:00      3.960     1.087    5.8959   165.080
   01/01/1998 00:10:00      4.560     1.087    5.8983   141.627
   01/01/1998 00:11:00      4.560     0.899    6.5780   136.502
   01/01/1998 00:12:00      4.560     0.819    6.7427   115.699
   01/01/1998 00:13:00      4.560     0.747    6.7978    95.921
   01/01/1998 00:14:00      4.560     0.683    7.0676    82.301
   01/01/1998 00:15:00      7.680     0.683    7.5325    71.573
   01/01/1998 00:16:00      7.680     0.573   12.5891    93.937
   01/01/1998 00:17:00      7.680     0.527   14.9270    44.802
   01/01/1998 00:18:00      7.680     0.485   16.7472    28.313
   01/01/1998 00:19:00      7.680     0.448   18.4298    15.655
   01/01/1998 00:20:00      9.720     0.448   19.9764     7.019
   01/01/1998 00:21:00      9.720     0.384   24.8487     2.758
   01/01/1998 00:22:00      9.720     0.357   27.2487     0.019
   01/01/1998 00:23:00      9.720     0.333   29.0130     0.000
   01/01/1998 00:24:00      9.720     0.311   30.4386     0.000
   01/01/1998 00:25:00     18.840     0.311   31.5928     0.000
   01/01/1998 00:26:00     18.840     0.274   49.9776     0.000
   01/01/1998 00:27:00     18.840     0.258   56.1494     0.000
   01/01/1998 00:28:00     18.840     0.244   60.1264     0.000
   01/01/1998 00:29:00     18.840     0.232   63.0465     0.000
   01/01/1998 00:30:00     34.200     0.232   65.1759     0.000
   01/01/1998 00:31:00     34.200     0.210   99.7506     0.000
   01/01/1998 00:32:00     34.200     0.201  110.1335     0.000
   01/01/1998 00:33:00     34.200     0.193  116.6162     0.000
   01/01/1998 00:34:00     34.200     0.185  120.8824     0.000
   01/01/1998 00:35:00     14.160     0.185  123.6371     0.000
   01/01/1998 00:36:00     14.160     0.173   81.0372     0.000
   01/01/1998 00:37:00     14.160     0.168   70.2918     0.000
   01/01/1998 00:38:00     14.160     0.163   64.5131     0.000
   01/01/1998 00:39:00     14.160     0.158   60.8382     0.000
   01/01/1998 00:40:00      8.520     0.158   58.3880     0.000
   01/01/1998 00:41:00      8.520     0.151   45.6282     0.000
   01/01/1998 00:42:00      8.520     0.148   41.0805     0.000
   01/01/1998 00:43:00      8.520     0.145   38.4215     0.000
   01/01/1998 00:44:00      8.520     0.143   36.6103     0.000
   01/01/1998 00:45:00      5.040     0.143   35.3179     0.000
   01/01/1998 00:46:00      5.040     0.139   28.1743     0.000
   01/01/1998 00:47:00      5.040     0.137   25.3467     0.000
   01/01/1998 00:48:00      5.040     0.135   23.6617     0.000
   01/01/1998 00:49:00      5.040     0.134   22.4842     0.000
   01/01/1998 00:50:00      4.200     0.134   21.6101     0.000
   01/01/1998 00:51:00      4.200     0.131   19.5741     0.000
   01/01/1998 00:52:00      4.200     0.130   18.5378     0.000
   01/01/1998 00:53:00      4.200     0.129   17.8514     0.000
   01/01/1998 00:54:00      4.200     0.128   17.3428     0.000
   01/01/1998 00:55:00      3.600     0.128   16.9490     0.000
   01/01/1998 00:56:00      3.600     0.127   15.7052     0.000
   01/01/1998 00:57:00      3.600     0.126   15.0855     0.000
   01/01/1998 00:58:00      3.600     0.126   14.6812     0.000
   01/01/1998 00:59:00      3.600     0.125   14.3804     0.000
   01/01/1998 01:00:00      2.400     0.125   14.1443     0.000
  
  
  <<< Subcatchment S4 >>>
  -------------------------------------------------------------
  Date        Time        Precip.    Losses    Runoff       TSS
                            in/hr     in/hr       CFS      MG/L
  -------------------------------------------------------------
   01/01/1998 00:01:00      3.480     1.743    1.0713    44.235
   01/01/1998 00:02:00      3.480     1.743    5.2250   276.915
   01/01/1998 00:03:00      3.480     1.632    9.0351   507.342
   01/01/1998 00:04:00      3.480     1.475   10.8241   552.903
   01/01/1998 00:05:00      3.960     1.475   11.5113   489.809
   01/01/1998 00:06:00      3.960     1.207   12.8418   445.069
   01/01/1998 00:07:00      3.960     1.093   13.3018   346.176
   01/01/1998 00:08:00      3.960     0.991   13.4549   255.674
   01/01/1998 00:09:00      3.960     0.900   13.5052   186.314
   01/01/1998 00:10:00      4.560     0.900   13.5216   135.806
   01/01/1998 00:11:00      4.560     0.744   14.9249   111.145
   01/01/1998 00:12:00      4.560     0.678   15.3768    77.571
   01/01/1998 00:13:00      4.560     0.619   15.5437    52.332
   01/01/1998 00:14:00      4.560     0.565   16.0039    36.520
   01/01/1998 00:15:00      7.680     0.565   16.7541    25.937
   01/01/1998 00:16:00      7.680     0.475   26.6136    24.434
   01/01/1998 00:17:00      7.680     0.436   31.3067    10.735
   01/01/1998 00:18:00      7.680     0.402   34.4800     5.634
   01/01/1998 00:19:00      7.680     0.371   37.1673     2.322
   01/01/1998 00:20:00      9.720     0.371   39.5485     0.731
   01/01/1998 00:21:00      9.720     0.318   48.5156     0.165
   01/01/1998 00:22:00      9.720     0.296   52.7619     0.000
   01/01/1998 00:23:00      9.720     0.276   55.5667     0.000
   01/01/1998 00:24:00      9.720     0.258   57.7092     0.000
   01/01/1998 00:25:00     18.840     0.258   59.4001     0.000
   01/01/1998 00:26:00     18.840     0.227   95.1766     0.000
   01/01/1998 00:27:00     18.840     0.214  106.9436     0.000
   01/01/1998 00:28:00     18.840     0.202  113.3041     0.000
   01/01/1998 00:29:00     18.840     0.192  117.6713     0.000
   01/01/1998 00:30:00     34.200     0.192  120.7728     0.000
   01/01/1998 00:31:00     34.200     0.174  188.3671     0.000
   01/01/1998 00:32:00     34.200     0.166  206.7712     0.000
   01/01/1998 00:33:00     34.200     0.160  216.6482     0.000
   01/01/1998 00:34:00     34.200     0.154  222.8806     0.000
   01/01/1998 00:35:00     14.160     0.154  226.8147     0.000
   01/01/1998 00:36:00     14.160     0.143  142.7073     0.000
   01/01/1998 00:37:00     14.160     0.139  122.6107     0.000
   01/01/1998 00:38:00     14.160     0.135  113.1925     0.000
   01/01/1998 00:39:00     14.160     0.131  107.5883     0.000
   01/01/1998 00:40:00      8.520     0.131  103.9575     0.000
   01/01/1998 00:41:00      8.520     0.125   80.0087     0.000
   01/01/1998 00:42:00      8.520     0.123   71.7403     0.000
   01/01/1998 00:43:00      8.520     0.120   67.4060     0.000
   01/01/1998 00:44:00      8.520     0.118   64.6493     0.000
   01/01/1998 00:45:00      5.040     0.118   62.7467     0.000
   01/01/1998 00:46:00      5.040     0.115   49.4155     0.000
   01/01/1998 00:47:00      5.040     0.113   44.1673     0.000
   01/01/1998 00:48:00      5.040     0.112   41.3097     0.000
   01/01/1998 00:49:00      5.040     0.111   39.4577     0.000
   01/01/1998 00:50:00      4.200     0.111   38.1431     0.000
   01/01/1998 00:51:00      4.200     0.109   34.5385     0.000
   01/01/1998 00:52:00      4.200     0.108   32.7311     0.000
   01/01/1998 00:53:00      4.200     0.107   31.6155     0.000
   01/01/1998 00:54:00      4.200     0.106   30.8354     0.000
   01/01/1998 00:55:00      3.600     0.106   30.2527     0.000
   01/01/1998 00:56:00      3.600     0.105   28.0141     0.000
   01/01/1998 00:57:00      3.600     0.105   26.8981     0.000
   01/01/1998 00:58:00      3.600     0.104   26.2194     0.000
   01/01/1998 00:59:00      3.600     0.104   25.7476     0.000
   01/01/1998 01:00:00      2.400     0.104   25.3934     0.000
  
  
  <<< Subcatchment S5 >>>
  -------------------------------------------------------------
  Date        Time        Precip.    Losses    Runoff       TSS
                            in/hr     in/hr       CFS      MG/L
  -------------------------------------------------------------
   01/01/1998 00:01:00      3.480     0.428    0.7086    84.923
   01/01/1998 00:02:00      3.480     0.428    3.7680   630.193
   01/01/1998 00:03:00      3.480     0.401    7.7055  1429.560
   01/01/1998 00:04:00      3.480     0.362   10.6818  1721.416
   01/01/1998 00:05:00      3.960     0.362   12.5297  1288.041
   01/01/1998 00:06:00      3.960     0.296   14.5562   704.898
   01/01/1998 00:07:00      3.960     0.268   15.6480   188.403
   01/01/1998 00:08:00      3.960     0.243   16.2106    22.575
   01/01/1998 00:09:00      3.960     0.221   16.4943     0.998
   01/01/1998 00:10:00      4.560     0.221   16.6357     0.006
   01/01/1998 00:11:00      4.560     0.183   18.0069     0.000
   01/01/1998 00:12:00      4.560     0.166   18.6868     0.000
   01/01/1998 00:13:00      4.560     0.152   19.0311     0.000
   01/01/1998 00:14:00      4.560     0.139   19.4147     0.000
   01/01/1998 00:15:00      7.680     0.139   19.8371     0.000
   01/01/1998 00:16:00      7.680     0.117   28.0783     0.000
   01/01/1998 00:17:00      7.680     0.107   32.3664     0.000
   01/01/1998 00:18:00      7.680     0.099   34.4732     0.000
   01/01/1998 00:19:00      7.680     0.091   35.5174     0.000
   01/01/1998 00:20:00      9.720     0.091   36.0542     0.000
   01/01/1998 00:21:00      9.720     0.078   42.1649     0.000
   01/01/1998 00:22:00      9.720     0.073   44.7374     0.000
   01/01/1998 00:23:00      9.720     0.068   45.8023     0.000
   01/01/1998 00:24:00      9.720     0.063   46.2563     0.000
   01/01/1998 00:25:00     18.840     0.063   46.4622     0.000
   01/01/1998 00:26:00     18.840     0.056   75.5248     0.000
   01/01/1998 00:27:00     18.840     0.053   85.8935     0.000
   01/01/1998 00:28:00     18.840     0.050   89.1647     0.000
   01/01/1998 00:29:00     18.840     0.047   90.2095     0.000
   01/01/1998 00:30:00     34.200     0.047   90.5646     0.000
   01/01/1998 00:31:00     34.200     0.043  146.5552     0.000
   01/01/1998 00:32:00     34.200     0.041  160.6968     0.000
   01/01/1998 00:33:00     34.200     0.039  163.9142     0.000
   01/01/1998 00:34:00     34.200     0.038  164.7004     0.000
   01/01/1998 00:35:00     14.160     0.038  164.9144     0.000
   01/01/1998 00:36:00     14.160     0.035   92.6605     0.000
   01/01/1998 00:37:00     14.160     0.034   75.9026     0.000
   01/01/1998 00:38:00     14.160     0.033   70.8769     0.000
   01/01/1998 00:39:00     14.160     0.032   69.2057     0.000
   01/01/1998 00:40:00      8.520     0.032   68.6146     0.000
   01/01/1998 00:41:00      8.520     0.031   50.8209     0.000
   01/01/1998 00:42:00      8.520     0.030   44.8670     0.000
   01/01/1998 00:43:00      8.520     0.030   42.6114     0.000
   01/01/1998 00:44:00      8.520     0.029   41.7032     0.000
   01/01/1998 00:45:00      5.040     0.029   41.3227     0.000
   01/01/1998 00:46:00      5.040     0.028   31.5046     0.000
   01/01/1998 00:47:00      5.040     0.028   27.5721     0.000
   01/01/1998 00:48:00      5.040     0.027   25.8300     0.000
   01/01/1998 00:49:00      5.040     0.027   25.0159     0.000
   01/01/1998 00:50:00      4.200     0.027   24.6226     0.000
   01/01/1998 00:51:00      4.200     0.027   22.3411     0.000
   01/01/1998 00:52:00      4.200     0.026   21.2608     0.000
   01/01/1998 00:53:00      4.200     0.026   20.7290     0.000
   01/01/1998 00:54:00      4.200     0.026   20.4605     0.000
   01/01/1998 00:55:00      3.600     0.026   20.3223     0.000
   01/01/1998 00:56:00      3.600     0.026   18.8301     0.000
   01/01/1998 00:57:00      3.600     0.026   18.0868     0.000
   01/01/1998 00:58:00      3.600     0.026   17.7051     0.000
   01/01/1998 00:59:00      3.600     0.025   17.5050     0.000
   01/01/1998 01:00:00      2.400     0.025   17.3984     0.000
  
  
  <<< Subcatchment S6 >>>
  -------------------------------------------------------------
  Date        Time        Precip.    Losses    Runoff       TSS
                            in/hr     in/hr       CFS      MG/L
  -------------------------------------------------------------
   01/01/1998 00:01:00      3.480     0.174    0.2956    94.031
   01/01/1998 00:02:00      3.480     0.174    1.5839   704.050
   01/01/1998 00:03:00      3.480     0.163    3.2852  1621.942
   01/01/1998 00:04:00      3.480     0.147    4.6203  1955.161
   01/01/1998 00:05:00      3.960     0.147    5.4830  1387.254
   01/01/1998 00:06:00      3.960     0.120    6.4129   643.984
   01/01/1998 00:07:00      3.960     0.109    6.9333    90.134
   01/01/1998 00:08:00      3.960     0.099    7.2116     0.000
   01/01/1998 00:09:00      3.960     0.090    7.3571     0.000
   01/01/1998 00:10:00      4.560     0.090    7.4322     0.000
   01/01/1998 00:11:00      4.560     0.074    8.0338     0.000
   01/01/1998 00:12:00      4.560     0.068    8.3427     0.000
   01/01/1998 00:13:00      4.560     0.062    8.5039     0.000
   01/01/1998 00:14:00      4.560     0.056    8.6638     0.000
   01/01/1998 00:15:00      7.680     0.056    8.7998     0.000
   01/01/1998 00:16:00      7.680     0.047   12.2166     0.000
   01/01/1998 00:17:00      7.680     0.044   13.9192     0.000
   01/01/1998 00:18:00      7.680     0.040   14.6846     0.000
   01/01/1998 00:19:00      7.680     0.037   15.0159     0.000
   01/01/1998 00:20:00      9.720     0.037   15.1585     0.000
   01/01/1998 00:21:00      9.720     0.032   17.6549     0.000
   01/01/1998 00:22:00      9.720     0.030   18.6872     0.000
   01/01/1998 00:23:00      9.720     0.028   19.0947     0.000
   01/01/1998 00:24:00      9.720     0.026   19.2538     0.000
   01/01/1998 00:25:00     18.840     0.026   19.3169     0.000
   01/01/1998 00:26:00     18.840     0.023   31.4369     0.000
   01/01/1998 00:27:00     18.840     0.021   35.7428     0.000
   01/01/1998 00:28:00     18.840     0.020   37.0461     0.000
   01/01/1998 00:29:00     18.840     0.019   37.4244     0.000
   01/01/1998 00:30:00     34.200     0.019   37.5338     0.000
   01/01/1998 00:31:00     34.200     0.017   60.8859     0.000
   01/01/1998 00:32:00     34.200     0.017   66.7081     0.000
   01/01/1998 00:33:00     34.200     0.016   67.9329     0.000
   01/01/1998 00:34:00     34.200     0.015   68.1860     0.000
   01/01/1998 00:35:00     14.160     0.015   68.2387     0.000
   01/01/1998 00:36:00     14.160     0.014   38.1013     0.000
   01/01/1998 00:37:00     14.160     0.014   31.1832     0.000
   01/01/1998 00:38:00     14.160     0.013   29.1734     0.000
   01/01/1998 00:39:00     14.160     0.013   28.5439     0.000
   01/01/1998 00:40:00      8.520     0.013   28.3422     0.000
   01/01/1998 00:41:00      8.520     0.012   20.9502     0.000
   01/01/1998 00:42:00      8.520     0.012   18.4884     0.000
   01/01/1998 00:43:00      8.520     0.012   17.5741     0.000
   01/01/1998 00:44:00      8.520     0.012   17.2196     0.000
   01/01/1998 00:45:00      5.040     0.012   17.0798     0.000
   01/01/1998 00:46:00      5.040     0.011   12.9996     0.000
   01/01/1998 00:47:00      5.040     0.011   11.3688     0.000
   01/01/1998 00:48:00      5.040     0.011   10.6551     0.000
   01/01/1998 00:49:00      5.040     0.011   10.3290     0.000
   01/01/1998 00:50:00      4.200     0.011   10.1769     0.000
   01/01/1998 00:51:00      4.200     0.011    9.2356     0.000
   01/01/1998 00:52:00      4.200     0.011    8.7917     0.000
   01/01/1998 00:53:00      4.200     0.011    8.5762     0.000
   01/01/1998 00:54:00      4.200     0.011    8.4699     0.000
   01/01/1998 00:55:00      3.600     0.011    8.4171     0.000
   01/01/1998 00:56:00      3.600     0.010    7.7989     0.000
   01/01/1998 00:57:00      3.600     0.010    7.4913     0.000
   01/01/1998 00:58:00      3.600     0.010    7.3348     0.000
   01/01/1998 00:59:00      3.600     0.010    7.2542     0.000
   01/01/1998 01:00:00      2.400     0.010    7.2124     0.000
  
  
  <<< Subcatchment S7 >>>
  -------------------------------------------------------------
  Date        Time        Precip.    Losses    Runoff       TSS
                            in/hr     in/hr       CFS      MG/L
  -------------------------------------------------------------
   01/01/1998 00:01:00      3.480     3.480    0.0000     0.000
   01/01/1998 00:02:00      3.480     3.480    0.0000     0.000
   01/01/1998 00:03:00      3.480     3.258    0.0000     0.000
   01/01/1998 00:04:00      3.480     2.944    0.0000     0.000
   01/01/1998 00:05:00      3.960     2.944    0.0000     0.000
   01/01/1998 00:06:00      3.960     2.409    0.0000     0.000
   01/01/1998 00:07:00      3.960     2.183    0.0000     0.000
   01/01/1998 00:08:00      3.960     1.979    0.0000     0.000
   01/01/1998 00:09:00      3.960     1.796    0.0000     0.000
   01/01/1998 00:10:00      4.560     1.796    0.0000     0.000
   01/01/1998 00:11:00      4.560     1.485    0.0000     0.000
   01/01/1998 00:12:00      4.560     1.353    0.0000     0.000
   01/01/1998 00:13:00      4.560     1.235    0.0103     0.000
   01/01/1998 00:14:00      4.560     1.129    0.1744     0.000
   01/01/1998 00:15:00      7.680     1.129    0.4724     0.000
   01/01/1998 00:16:00      7.680     0.948    1.3248     0.000
   01/01/1998 00:17:00      7.680     0.871    2.4236     0.000
   01/01/1998 00:18:00      7.680     0.802    3.6680     0.000
   01/01/1998 00:19:00      7.680     0.740    4.9779     0.000
   01/01/1998 00:20:00      9.720     0.740    6.2914     0.000
   01/01/1998 00:21:00      9.720     0.635    8.1941     0.000
   01/01/1998 00:22:00      9.720     0.590   10.0192     0.000
   01/01/1998 00:23:00      9.720     0.550   11.7130     0.000
   01/01/1998 00:24:00      9.720     0.514   13.2460     0.000
   01/01/1998 00:25:00     18.840     0.514   14.6068     0.000
   01/01/1998 00:26:00     18.840     0.453   19.5946     0.000
   01/01/1998 00:27:00     18.840     0.427   24.1064     0.000
   01/01/1998 00:28:00     18.840     0.404   28.0059     0.000
   01/01/1998 00:29:00     18.840     0.383   31.2685     0.000
   01/01/1998 00:30:00     34.200     0.383   33.9344     0.000
   01/01/1998 00:31:00     34.200     0.347   44.6567     0.000
   01/01/1998 00:32:00     34.200     0.332   53.5255     0.000
   01/01/1998 00:33:00     34.200     0.319   60.4960     0.000
   01/01/1998 00:34:00     34.200     0.306   65.7895     0.000
   01/01/1998 00:35:00     14.160     0.306   69.7163     0.000
   01/01/1998 00:36:00     14.160     0.286   59.3774     0.000
   01/01/1998 00:37:00     14.160     0.277   52.2778     0.000
   01/01/1998 00:38:00     14.160     0.269   47.2650     0.000
   01/01/1998 00:39:00     14.160     0.262   43.6490     0.000
   01/01/1998 00:40:00      8.520     0.262   40.9969     0.000
   01/01/1998 00:41:00      8.520     0.250   35.9655     0.000
   01/01/1998 00:42:00      8.520     0.245   32.2683     0.000
   01/01/1998 00:43:00      8.520     0.240   29.4988     0.000
   01/01/1998 00:44:00      8.520     0.236   27.3915     0.000
   01/01/1998 00:45:00      5.040     0.236   25.7677     0.000
   01/01/1998 00:46:00      5.040     0.229   22.8972     0.000
   01/01/1998 00:47:00      5.040     0.226   20.6862     0.000
   01/01/1998 00:48:00      5.040     0.223   18.9578     0.000
   01/01/1998 00:49:00      5.040     0.221   17.5898     0.000
   01/01/1998 00:50:00      4.200     0.221   16.4957     0.000
   01/01/1998 00:51:00      4.200     0.217   15.2803     0.000
   01/01/1998 00:52:00      4.200     0.215   14.2985     0.000
   01/01/1998 00:53:00      4.200     0.214   13.4984     0.000
   01/01/1998 00:54:00      4.200     0.212   12.8416     0.000
   01/01/1998 00:55:00      3.600     0.212   12.2990     0.000
   01/01/1998 00:56:00      3.600     0.210   11.6336     0.000
   01/01/1998 00:57:00      3.600     0.209   11.0814     0.000
   01/01/1998 00:58:00      3.600     0.208   10.6205     0.000
   01/01/1998 00:59:00      3.600     0.207   10.2338     0.000
   01/01/1998 01:00:00      2.400     0.207    9.9080     0.000
  
  
  ************************
  Node Time Series Results
  ************************
  
  <<< Node J1 >>>
  --------------------------------------------------------------------------
                           Inflow  Flooding     Depth      Head       TSS
  Date        Time            CFS       CFS      feet      feet      MG/L
  --------------------------------------------------------------------------
   01/01/1998 00:01:00      0.619     0.000     0.020  4973.021   180.293
   01/01/1998 00:02:00      2.941     0.000     0.165  4973.166   648.682
   01/01/1998 00:03:00      5.780     0.000     0.436  4973.436  1054.447
   01/01/1998 00:04:00      7.494     0.000     0.578  4973.578  1222.232
   01/01/1998 00:05:00      8.431     0.000     0.570  4973.569  1225.187
   01/01/1998 00:06:00      9.438     0.000     0.552  4973.552  1215.543
   01/01/1998 00:07:00      9.958     0.000     0.570  4973.570  1114.354
   01/01/1998 00:08:00     10.181     0.000     0.581  4973.581   976.511
   01/01/1998 00:09:00     10.262     0.000     0.585  4973.585   849.056
   01/01/1998 00:10:00     10.299     0.000     0.587  4973.587   722.034
   01/01/1998 00:11:00     11.205     0.000     0.602  4973.602   667.244
   01/01/1998 00:12:00     11.622     0.000     0.619  4973.619   573.276
   01/01/1998 00:13:00     11.802     0.000     0.628  4973.628   474.365
   01/01/1998 00:14:00     12.077     0.000     0.635  4973.634   396.925
   01/01/1998 00:15:00     12.505     0.000     0.644  4973.644   328.814
   01/01/1998 00:16:00     18.580     0.000     0.736  4973.736   361.987
   01/01/1998 00:17:00     22.262     0.000     0.836  4973.836   237.376
   01/01/1998 00:18:00     24.279     0.000     0.891  4973.891   114.771
   01/01/1998 00:19:00     25.945     0.000     0.926  4973.926    40.806
   01/01/1998 00:20:00     27.387     0.000     0.953  4973.953    10.293
   01/01/1998 00:21:00     32.931     0.000     1.020  4974.020     1.869
   01/01/1998 00:22:00     35.952     0.000     1.082  4974.082     0.072
   01/01/1998 00:23:00     37.873     0.000     1.116  4974.116     0.000
   01/01/1998 00:24:00     39.147     0.000     1.138  4974.138     0.000
   01/01/1998 00:25:00     40.205     0.000     1.154  4974.154     0.000
   01/01/1998 00:26:00     63.283     0.000     1.347  4974.347     0.000
   01/01/1998 00:27:00     72.319     0.000     1.498  4974.498     0.000
   01/01/1998 00:28:00     76.686     0.000     1.556  4974.556     0.000
   01/01/1998 00:29:00     79.397     0.000     1.586  4974.586     0.000
   01/01/1998 00:30:00     81.339     0.000     1.606  4974.606     0.000
   01/01/1998 00:31:00    125.478     0.000     1.867  4974.867     0.000
   01/01/1998 00:32:00    139.898     0.000     2.032  4975.032     0.000
   01/01/1998 00:33:00    145.953     0.000     2.088  4975.088     0.000
   01/01/1998 00:34:00    149.871     0.000     2.116  4975.116     0.000
   01/01/1998 00:35:00    152.303     0.000     2.134  4975.134     0.000
   01/01/1998 00:36:00     97.319     0.000     1.869  4974.869     0.000
   01/01/1998 00:37:00     81.247     0.000     1.658  4974.658     0.000
   01/01/1998 00:38:00     75.150     0.000     1.575  4974.575     0.000
   01/01/1998 00:39:00     71.524     0.000     1.532  4974.532     0.000
   01/01/1998 00:40:00     69.298     0.000     1.506  4974.506     0.000
   01/01/1998 00:41:00     53.996     0.000     1.394  4974.394     0.000
   01/01/1998 00:42:00     47.740     0.000     1.290  4974.291     0.000
   01/01/1998 00:43:00     44.887     0.000     1.238  4974.238     0.000
   01/01/1998 00:44:00     43.057     0.000     1.209  4974.209     0.000
   01/01/1998 00:45:00     41.869     0.000     1.190  4974.189     0.000
   01/01/1998 00:46:00     33.252     0.000     1.112  4974.112     0.000
   01/01/1998 00:47:00     29.567     0.000     1.030  4974.030     0.000
   01/01/1998 00:48:00     27.542     0.000     0.983  4973.983     0.000
   01/01/1998 00:49:00     26.243     0.000     0.955  4973.955     0.000
   01/01/1998 00:50:00     25.445     0.000     0.936  4973.936     0.000
   01/01/1998 00:51:00     23.192     0.000     0.906  4973.906     0.000
   01/01/1998 00:52:00     21.904     0.000     0.875  4973.875     0.000
   01/01/1998 00:53:00     21.131     0.000     0.855  4973.855     0.000
   01/01/1998 00:54:00     20.612     0.000     0.842  4973.842     0.000
   01/01/1998 00:55:00     20.256     0.000     0.833  4973.833     0.000
   01/01/1998 00:56:00     18.810     0.000     0.813  4973.813     0.000
   01/01/1998 00:57:00     18.055     0.000     0.792  4973.792     0.000
   01/01/1998 00:58:00     17.570     0.000     0.778  4973.778     0.000
   01/01/1998 00:59:00     17.254     0.000     0.769  4973.770     0.000
   01/01/1998 01:00:00     17.024     0.000     0.763  4973.763     0.000
  
  
  <<< Node J2 >>>
  --------------------------------------------------------------------------
                           Inflow  Flooding     Depth      Head       TSS
  Date        Time            CFS       CFS      feet      feet      MG/L
  --------------------------------------------------------------------------
   01/01/1998 00:01:00      0.657     0.000     0.039  4969.039    69.098
   01/01/1998 00:02:00      3.157     0.000     0.124  4969.124   422.525
   01/01/1998 00:03:00      6.342     0.000     0.240  4969.240   861.758
   01/01/1998 00:04:00      8.385     0.000     0.341  4969.341  1032.918
   01/01/1998 00:05:00      9.574     0.000     0.419  4969.419   926.183
   01/01/1998 00:06:00     10.775     0.000     0.479  4969.479   777.682
   01/01/1998 00:07:00     11.425     0.000     0.526  4969.526   535.320
   01/01/1998 00:08:00     11.721     0.000     0.559  4969.560   327.813
   01/01/1998 00:09:00     11.835     0.000     0.582  4969.583   205.413
   01/01/1998 00:10:00     11.890     0.000     0.598  4969.598   125.418
   01/01/1998 00:11:00     12.902     0.000     0.612  4969.611    92.975
   01/01/1998 00:12:00     13.392     0.000     0.626  4969.625    62.886
   01/01/1998 00:13:00     13.614     0.000     0.637  4969.637    42.991
   01/01/1998 00:14:00     13.916     0.000     0.646  4969.646    31.997
   01/01/1998 00:15:00     14.365     0.000     0.654  4969.654    24.239
   01/01/1998 00:16:00     21.027     0.000     0.681  4969.681    24.623
   01/01/1998 00:17:00     25.115     0.000     0.729  4969.729    14.102
   01/01/1998 00:18:00     27.267     0.000     0.774  4969.774     5.526
   01/01/1998 00:19:00     28.935     0.000     0.810  4969.811     1.413
   01/01/1998 00:20:00     30.299     0.000     0.838  4969.838     0.215
   01/01/1998 00:21:00     36.147     0.000     0.871  4969.871     0.019
   01/01/1998 00:22:00     39.249     0.000     0.910  4969.910     0.001
   01/01/1998 00:23:00     41.085     0.000     0.942  4969.942     0.000
   01/01/1998 00:24:00     42.212     0.000     0.965  4969.965     0.000
   01/01/1998 00:25:00     43.100     0.000     0.981  4969.981     0.000
   01/01/1998 00:26:00     68.122    25.499     1.000  4970.000     0.000
   01/01/1998 00:27:00     77.880    35.205     1.000  4970.000     0.000
   01/01/1998 00:28:00     82.197    39.431     1.000  4970.000     0.000
   01/01/1998 00:29:00     84.617    41.867     1.000  4970.000     0.000
   01/01/1998 00:30:00     86.233    43.405     1.000  4970.000     0.000
   01/01/1998 00:31:00    134.167    91.545     1.000  4970.000     0.000
   01/01/1998 00:32:00    149.370   106.173     1.000  4970.000     0.000
   01/01/1998 00:33:00    154.953   112.212     1.000  4970.000     0.000
   01/01/1998 00:34:00    158.254   115.398     1.000  4970.000     0.000
   01/01/1998 00:35:00    160.165   117.330     1.000  4970.000     0.000
   01/01/1998 00:36:00     99.738    56.720     1.000  4970.000     0.000
   01/01/1998 00:37:00     82.338    39.993     1.000  4970.000     0.000
   01/01/1998 00:38:00     76.231    33.374     1.000  4970.000     0.000
   01/01/1998 00:39:00     72.870    30.133     1.000  4970.000     0.000
   01/01/1998 00:40:00     70.939    28.181     1.000  4970.000     0.000
   01/01/1998 00:41:00     54.693    11.836     1.000  4970.000     0.000
   01/01/1998 00:42:00     48.200     5.579     1.000  4970.000     0.000
   01/01/1998 00:43:00     45.427     2.603     1.000  4970.000     0.000
   01/01/1998 00:44:00     43.764     0.997     1.000  4970.000     0.000
   01/01/1998 00:45:00     42.748     0.000     1.000  4970.000     0.000
   01/01/1998 00:46:00     33.629     0.000     0.981  4969.981     0.000
   01/01/1998 00:47:00     29.785     0.000     0.944  4969.943     0.000
   01/01/1998 00:48:00     27.764     0.000     0.909  4969.909     0.000
   01/01/1998 00:49:00     26.541     0.000     0.882  4969.882     0.000
   01/01/1998 00:50:00     25.833     0.000     0.863  4969.862     0.000
   01/01/1998 00:51:00     23.536     0.000     0.844  4969.844     0.000
   01/01/1998 00:52:00     22.254     0.000     0.824  4969.824     0.000
   01/01/1998 00:53:00     21.521     0.000     0.807  4969.807     0.000
   01/01/1998 00:54:00     21.055     0.000     0.794  4969.794     0.000
   01/01/1998 00:55:00     20.750     0.000     0.784  4969.785     0.000
   01/01/1998 00:56:00     19.261     0.000     0.774  4969.774     0.000
   01/01/1998 00:57:00     18.496     0.000     0.761  4969.762     0.000
   01/01/1998 00:58:00     18.024     0.000     0.750  4969.750     0.000
   01/01/1998 00:59:00     17.733     0.000     0.742  4969.742     0.000
   01/01/1998 01:00:00     17.532     0.000     0.735  4969.735     0.000
  
  
  <<< Node J3 >>>
  --------------------------------------------------------------------------
                           Inflow  Flooding     Depth      Head       TSS
  Date        Time            CFS       CFS      feet      feet      MG/L
  --------------------------------------------------------------------------
   01/01/1998 00:01:00      0.593     0.000     0.173  4973.173    32.419
   01/01/1998 00:02:00      2.590     0.000     0.439  4973.439   161.269
   01/01/1998 00:03:00      4.294     0.000     0.556  4973.556   256.737
   01/01/1998 00:04:00      4.916     0.000     0.580  4973.580   272.620
   01/01/1998 00:05:00      5.122     0.000     0.595  4973.595   253.823
   01/01/1998 00:06:00      5.647     0.000     0.634  4973.634   252.774
   01/01/1998 00:07:00      5.835     0.000     0.644  4973.645   226.320
   01/01/1998 00:08:00      5.884     0.000     0.646  4973.646   194.226
   01/01/1998 00:09:00      5.895     0.000     0.647  4973.647   167.236
   01/01/1998 00:10:00      5.898     0.000     0.647  4973.647   141.754
   01/01/1998 00:11:00      6.538     0.000     0.683  4973.683   136.776
   01/01/1998 00:12:00      6.733     0.000     0.693  4973.693   116.919
   01/01/1998 00:13:00      6.796     0.000     0.695  4973.695    96.475
   01/01/1998 00:14:00      7.054     0.000     0.709  4973.709    82.983
   01/01/1998 00:15:00      7.519     0.000     0.733  4973.732    71.872
   01/01/1998 00:16:00     12.274     0.000     0.961  4973.961    93.077
   01/01/1998 00:17:00     14.897     0.000     1.057  4974.057    45.345
   01/01/1998 00:18:00     16.642     0.000     1.125  4974.125    29.170
   01/01/1998 00:19:00     18.333     0.000     1.189  4974.189    16.320
   01/01/1998 00:20:00     19.918     0.000     1.246  4974.246     7.320
   01/01/1998 00:21:00     24.595     0.000     1.426  4974.426     2.938
   01/01/1998 00:22:00     27.127     0.000     1.513  4974.513     0.146
   01/01/1998 00:23:00     28.996     0.000     1.580  4974.580     0.000
   01/01/1998 00:24:00     30.379     0.000     1.634  4974.634     0.000
   01/01/1998 00:25:00     31.573     0.000     1.679  4974.679     0.000
   01/01/1998 00:26:00     49.374    11.241     2.250  4975.250     0.000
   01/01/1998 00:27:00     55.906    17.990     2.250  4975.250     0.000
   01/01/1998 00:28:00     59.986    22.402     2.250  4975.250     0.000
   01/01/1998 00:29:00     62.927    26.116     2.250  4975.250     0.000
   01/01/1998 00:30:00     65.136    28.591     2.250  4975.250     0.000
   01/01/1998 00:31:00     98.610    62.204     2.250  4975.250     0.000
   01/01/1998 00:32:00    110.038    73.195     2.250  4975.250     0.000
   01/01/1998 00:33:00    116.378    79.908     2.250  4975.250     0.000
   01/01/1998 00:34:00    120.809    84.195     2.250  4975.250     0.000
   01/01/1998 00:35:00    123.615    87.024     2.250  4975.250     0.000
   01/01/1998 00:36:00     82.443    45.758     2.250  4975.250     0.000
   01/01/1998 00:37:00     70.391    34.171     2.250  4975.250     0.000
   01/01/1998 00:38:00     64.725    28.135     2.250  4975.250     0.000
   01/01/1998 00:39:00     60.902    24.437     2.250  4975.250     0.000
   01/01/1998 00:40:00     58.408    21.924     2.250  4975.250     0.000
   01/01/1998 00:41:00     46.049     9.470     2.250  4975.250     0.000
   01/01/1998 00:42:00     41.123     4.690     2.250  4975.250     0.000
   01/01/1998 00:43:00     38.519     1.815     2.250  4975.250     0.000
   01/01/1998 00:44:00     36.641     0.000     2.247  4975.248     0.000
   01/01/1998 00:45:00     35.335     0.000     1.894  4974.894     0.000
   01/01/1998 00:46:00     28.295     0.000     1.587  4974.587     0.000
   01/01/1998 00:47:00     25.458     0.000     1.456  4974.456     0.000
   01/01/1998 00:48:00     23.734     0.000     1.378  4974.377     0.000
   01/01/1998 00:49:00     22.487     0.000     1.332  4974.332     0.000
   01/01/1998 00:50:00     21.649     0.000     1.302  4974.302     0.000
   01/01/1998 00:51:00     19.671     0.000     1.229  4974.229     0.000
   01/01/1998 00:52:00     18.577     0.000     1.191  4974.191     0.000
   01/01/1998 00:53:00     17.869     0.000     1.165  4974.166     0.000
   01/01/1998 00:54:00     17.349     0.000     1.146  4974.146     0.000
   01/01/1998 00:55:00     16.967     0.000     1.131  4974.131     0.000
   01/01/1998 00:56:00     15.723     0.000     1.083  4974.083     0.000
   01/01/1998 00:57:00     15.111     0.000     1.059  4974.059     0.000
   01/01/1998 00:58:00     14.691     0.000     1.043  4974.043     0.000
   01/01/1998 00:59:00     14.388     0.000     1.031  4974.031     0.000
   01/01/1998 01:00:00     14.150     0.000     1.022  4974.022     0.000
  
  
  <<< Node J4 >>>
  --------------------------------------------------------------------------
                           Inflow  Flooding     Depth      Head       TSS
  Date        Time            CFS       CFS      feet      feet      MG/L
  --------------------------------------------------------------------------
   01/01/1998 00:01:00      0.271     0.000     0.011  4971.011    32.206
   01/01/1998 00:02:00      2.128     0.000     0.135  4971.135   129.234
   01/01/1998 00:03:00      4.106     0.000     0.401  4971.401   222.717
   01/01/1998 00:04:00      4.855     0.000     0.552  4971.552   266.503
   01/01/1998 00:05:00      5.074     0.000     0.526  4971.525   260.841
   01/01/1998 00:06:00      5.583     0.000     0.500  4971.500   253.394
   01/01/1998 00:07:00      5.820     0.000     0.511  4971.511   235.732
   01/01/1998 00:08:00      5.880     0.000     0.517  4971.518   205.682
   01/01/1998 00:09:00      5.894     0.000     0.520  4971.520   176.435
   01/01/1998 00:10:00      5.898     0.000     0.520  4971.520   149.516
   01/01/1998 00:11:00      6.463     0.000     0.532  4971.532   138.626
   01/01/1998 00:12:00      6.717     0.000     0.550  4971.550   123.399
   01/01/1998 00:13:00      6.790     0.000     0.558  4971.558   103.404
   01/01/1998 00:14:00      7.024     0.000     0.565  4971.564    87.361
   01/01/1998 00:15:00      7.460     0.000     0.578  4971.578    75.021
   01/01/1998 00:16:00     11.847     0.000     0.667  4971.667    88.699
   01/01/1998 00:17:00     14.618     0.000     0.788  4971.788    58.497
   01/01/1998 00:18:00     16.503     0.000     0.856  4971.855    33.089
   01/01/1998 00:19:00     18.207     0.000     0.904  4971.904    19.207
   01/01/1998 00:20:00     19.779     0.000     0.946  4971.946     9.243
   01/01/1998 00:21:00     24.229     0.000     1.021  4972.021     3.775
   01/01/1998 00:22:00     26.960     0.000     1.097  4972.097     0.700
   01/01/1998 00:23:00     28.804     0.000     1.140  4972.141     0.008
   01/01/1998 00:24:00     30.266     0.000     1.172  4972.172     0.000
   01/01/1998 00:25:00     31.456     0.000     1.196  4972.196     0.000
   01/01/1998 00:26:00     38.095     0.000     1.301  4972.301     0.000
   01/01/1998 00:27:00     37.995     0.000     1.373  4972.373     0.000
   01/01/1998 00:28:00     37.617     0.000     1.561  4972.562     0.000
   01/01/1998 00:29:00     36.886     0.000     1.786  4972.787     0.000
   01/01/1998 00:30:00     36.503     0.000     1.860  4972.859     0.000
   01/01/1998 00:31:00     36.528     0.000     1.860  4972.860     0.000
   01/01/1998 00:32:00     36.539     0.000     1.853  4972.854     0.000
   01/01/1998 00:33:00     36.534     0.000     1.855  4972.855     0.000
   01/01/1998 00:34:00     36.534     0.000     1.855  4972.855     0.000
   01/01/1998 00:35:00     36.534     0.000     1.855  4972.855     0.000
   01/01/1998 00:36:00     36.534     0.000     1.855  4972.855     0.000
   01/01/1998 00:37:00     36.534     0.000     1.855  4972.855     0.000
   01/01/1998 00:38:00     36.534     0.000     1.855  4972.855     0.000
   01/01/1998 00:39:00     36.534     0.000     1.855  4972.855     0.000
   01/01/1998 00:40:00     36.534     0.000     1.855  4972.855     0.000
   01/01/1998 00:41:00     36.534     0.000     1.855  4972.855     0.000
   01/01/1998 00:42:00     36.566     0.000     1.838  4972.838     0.000
   01/01/1998 00:43:00     36.677     0.000     1.810  4972.810     0.000
   01/01/1998 00:44:00     36.770     0.000     1.793  4972.792     0.000
   01/01/1998 00:45:00     35.590     0.000     1.765  4972.765     0.000
   01/01/1998 00:46:00     28.974     0.000     1.679  4972.679     0.000
   01/01/1998 00:47:00     25.662     0.000     1.535  4972.535     0.000
   01/01/1998 00:48:00     23.910     0.000     1.359  4972.359     0.000
   01/01/1998 00:49:00     22.618     0.000     1.208  4972.208     0.000
   01/01/1998 00:50:00     21.709     0.000     1.090  4972.090     0.000
   01/01/1998 00:51:00     19.824     0.000     0.996  4971.997     0.000
   01/01/1998 00:52:00     18.663     0.000     0.951  4971.951     0.000
   01/01/1998 00:53:00     17.935     0.000     0.927  4971.927     0.000
   01/01/1998 00:54:00     17.405     0.000     0.911  4971.911     0.000
   01/01/1998 00:55:00     16.999     0.000     0.899  4971.899     0.000
   01/01/1998 00:56:00     15.865     0.000     0.878  4971.878     0.000
   01/01/1998 00:57:00     15.164     0.000     0.854  4971.854     0.000
   01/01/1998 00:58:00     14.733     0.000     0.839  4971.839     0.000
   01/01/1998 00:59:00     14.419     0.000     0.828  4971.829     0.000
   01/01/1998 01:00:00     14.175     0.000     0.820  4971.820     0.000
  
  
  <<< Node J5 >>>
  --------------------------------------------------------------------------
                           Inflow  Flooding     Depth      Head       TSS
  Date        Time            CFS       CFS      feet      feet      MG/L
  --------------------------------------------------------------------------
   01/01/1998 00:01:00      0.126     0.000     0.002  4969.802   118.821
   01/01/1998 00:02:00      0.619     0.000     0.011  4969.811   330.192
   01/01/1998 00:03:00      4.019     0.000     0.082  4969.882   542.935
   01/01/1998 00:04:00     10.951     0.000     0.292  4970.092   722.200
   01/01/1998 00:05:00     15.472     0.000     0.552  4970.352   809.825
   01/01/1998 00:06:00     14.584     0.000     0.733  4970.533   841.571
   01/01/1998 00:07:00     15.396     0.000     0.848  4970.648   837.054
   01/01/1998 00:08:00     15.882     0.000     0.929  4970.729   798.163
   01/01/1998 00:09:00     16.088     0.000     0.982  4970.782   739.314
   01/01/1998 00:10:00     16.170     0.000     1.017  4970.817   667.449
   01/01/1998 00:11:00     16.878     0.000     1.042  4970.842   607.172
   01/01/1998 00:12:00     17.924     0.000     1.070  4970.870   543.349
   01/01/1998 00:13:00     18.413     0.000     1.096  4970.896   479.679
   01/01/1998 00:14:00     18.809     0.000     1.117  4970.917   417.048
   01/01/1998 00:15:00     19.491     0.000     1.135  4970.935   355.117
   01/01/1998 00:16:00     25.147     0.000     1.175  4970.975   309.834
   01/01/1998 00:17:00     33.558     0.000     1.289  4971.089   257.598
   01/01/1998 00:18:00     38.784     0.000     1.419  4971.218   187.131
   01/01/1998 00:19:00     42.561     0.000     1.529  4971.329   121.157
   01/01/1998 00:20:00     45.788     0.000     1.618  4971.418    71.803
   01/01/1998 00:21:00     52.811     0.000     1.706  4971.505    40.114
   01/01/1998 00:22:00     60.465     0.000     1.824  4971.624    20.375
   01/01/1998 00:23:00     65.035     0.000     1.935  4971.735    10.259
   01/01/1998 00:24:00     68.235     0.000     2.027  4971.827     5.311
   01/01/1998 00:25:00     70.741     0.000     2.103  4971.902     2.769
   01/01/1998 00:26:00     91.608     0.000     2.221  4972.021     1.400
   01/01/1998 00:27:00    103.247     0.000     2.448  4972.248     0.629
   01/01/1998 00:28:00    106.764     0.000     2.703  4972.503     0.285
   01/01/1998 00:29:00    108.718     0.000     2.953  4972.753     0.137
   01/01/1998 00:30:00    119.781    24.431     3.000  4972.800     0.073
   01/01/1998 00:31:00    147.670    51.668     3.000  4972.800     0.038
   01/01/1998 00:32:00    171.871    75.502     3.000  4972.800     0.018
   01/01/1998 00:33:00    180.798    84.692     3.000  4972.800     0.008
   01/01/1998 00:34:00    185.291    89.097     3.000  4972.800     0.004
   01/01/1998 00:35:00    188.139    91.958     3.000  4972.800     0.002
   01/01/1998 00:36:00    150.256    53.972     3.000  4972.800     0.002
   01/01/1998 00:37:00    123.313    27.409     3.000  4972.800     0.001
   01/01/1998 00:38:00    113.967    17.767     3.000  4972.800     0.001
   01/01/1998 00:39:00    109.408    13.295     3.000  4972.800     0.001
   01/01/1998 00:40:00    106.674    10.550     3.000  4972.800     0.001
   01/01/1998 00:41:00     96.224     0.036     3.000  4972.800     0.000
   01/01/1998 00:42:00     88.163     0.000     2.975  4972.775     0.000
   01/01/1998 00:43:00     83.571     0.000     2.945  4972.745     0.000
   01/01/1998 00:44:00     80.991     0.000     2.927  4972.727     0.000
   01/01/1998 00:45:00     78.588     0.000     2.903  4972.703     0.000
   01/01/1998 00:46:00     69.564     0.000     2.821  4972.621     0.000
   01/01/1998 00:47:00     62.089     0.000     2.652  4972.452     0.000
   01/01/1998 00:48:00     56.860     0.000     2.451  4972.250     0.000
   01/01/1998 00:49:00     52.641     0.000     2.275  4972.075     0.000
   01/01/1998 00:50:00     49.874     0.000     2.126  4971.926     0.000
   01/01/1998 00:51:00     45.480     0.000     2.001  4971.801     0.000
   01/01/1998 00:52:00     41.852     0.000     1.885  4971.685     0.000
   01/01/1998 00:53:00     39.856     0.000     1.792  4971.592     0.000
   01/01/1998 00:54:00     38.569     0.000     1.723  4971.523     0.000
   01/01/1998 00:55:00     37.648     0.000     1.673  4971.473     0.000
   01/01/1998 00:56:00     35.923     0.000     1.633  4971.433     0.000
   01/01/1998 00:57:00     33.994     0.000     1.592  4971.392     0.000
   01/01/1998 00:58:00     32.800     0.000     1.555  4971.355     0.000
   01/01/1998 00:59:00     32.017     0.000     1.526  4971.326     0.000
   01/01/1998 01:00:00     31.449     0.000     1.504  4971.304     0.000
  
  
  <<< Node J6 >>>
  --------------------------------------------------------------------------
                           Inflow  Flooding     Depth      Head       TSS
  Date        Time            CFS       CFS      feet      feet      MG/L
  --------------------------------------------------------------------------
   01/01/1998 00:01:00      0.349     0.000     0.008  4969.008    38.681
   01/01/1998 00:02:00      1.186     0.000     0.036  4969.036   185.811
   01/01/1998 00:03:00      7.263     0.000     0.211  4969.211   363.107
   01/01/1998 00:04:00     11.970     0.000     0.494  4969.494   498.144
   01/01/1998 00:05:00     15.834     0.000     0.695  4969.695   561.351
   01/01/1998 00:06:00     19.612     0.000     0.811  4969.811   585.449
   01/01/1998 00:07:00     22.989     0.000     0.908  4969.908   587.677
   01/01/1998 00:08:00     25.326     0.000     0.981  4969.981   569.378
   01/01/1998 00:09:00     26.909     0.000     1.032  4970.032   538.729
   01/01/1998 00:10:00     27.968     0.000     1.067  4970.067   497.969
   01/01/1998 00:11:00     29.518     0.000     1.095  4970.095   453.209
   01/01/1998 00:12:00     31.213     0.000     1.129  4970.129   407.336
   01/01/1998 00:13:00     32.346     0.000     1.158  4970.158   366.175
   01/01/1998 00:14:00     33.359     0.000     1.180  4970.180   325.084
   01/01/1998 00:15:00     34.628     0.000     1.201  4970.201   282.407
   01/01/1998 00:16:00     42.322     0.000     1.261  4970.261   218.643
   01/01/1998 00:17:00     53.165     0.000     1.413  4970.413   176.607
   01/01/1998 00:18:00     62.320     0.000     1.568  4970.568   147.873
   01/01/1998 00:19:00     70.330     0.000     1.705  4970.705   118.240
   01/01/1998 00:20:00     77.357     0.000     1.821  4970.821    88.437
   01/01/1998 00:21:00     88.524     0.000     1.944  4970.944    60.180
   01/01/1998 00:22:00    100.175     0.000     2.102  4971.102    39.351
   01/01/1998 00:23:00    109.296     0.000     2.248  4971.248    25.546
   01/01/1998 00:24:00    116.480     0.000     2.371  4971.371    16.383
   01/01/1998 00:25:00    122.194     0.000     2.473  4971.473    10.294
   01/01/1998 00:26:00    153.695     0.000     2.657  4971.657     5.433
   01/01/1998 00:27:00    178.025     0.000     3.013  4972.013     2.848
   01/01/1998 00:28:00    183.592     0.000     3.307  4972.307     1.735
   01/01/1998 00:29:00    195.020    44.736     3.500  4972.500     1.173
   01/01/1998 00:30:00    215.372    64.301     3.500  4972.500     0.833
   01/01/1998 00:31:00    268.592   117.763     3.500  4972.500     0.437
   01/01/1998 00:32:00    298.853   147.546     3.500  4972.500     0.251
   01/01/1998 00:33:00    310.034   159.099     3.500  4972.500     0.154
   01/01/1998 00:34:00    317.224   166.152     3.500  4972.500     0.096
   01/01/1998 00:35:00    321.833   170.814     3.500  4972.500     0.059
   01/01/1998 00:36:00    258.237   107.028     3.500  4972.500     0.047
   01/01/1998 00:37:00    223.850    73.173     3.500  4972.500     0.035
   01/01/1998 00:38:00    211.812    60.738     3.500  4972.500     0.023
   01/01/1998 00:39:00    205.232    54.290     3.500  4972.500     0.015
   01/01/1998 00:40:00    201.034    50.074     3.500  4972.500     0.010
   01/01/1998 00:41:00    182.864    31.803     3.500  4972.500     0.007
   01/01/1998 00:42:00    167.118    16.337     3.500  4972.500     0.005
   01/01/1998 00:43:00    155.703     4.627     3.500  4972.500     0.003
   01/01/1998 00:44:00    148.617     0.000     3.494  4972.494     0.002
   01/01/1998 00:45:00    148.611     0.000     3.444  4972.444     0.001
   01/01/1998 00:46:00    141.478     0.000     3.332  4972.332     0.001
   01/01/1998 00:47:00    133.045     0.000     3.139  4972.140     0.001
   01/01/1998 00:48:00    122.728     0.000     2.930  4971.930     0.001
   01/01/1998 00:49:00    111.503     0.000     2.699  4971.699     0.000
   01/01/1998 00:50:00    103.065     0.000     2.497  4971.498     0.000
   01/01/1998 00:51:00     94.020     0.000     2.329  4971.329     0.000
   01/01/1998 00:52:00     85.631     0.000     2.176  4971.176     0.000
   01/01/1998 00:53:00     79.518     0.000     2.050  4971.050     0.000
   01/01/1998 00:54:00     75.132     0.000     1.955  4970.956     0.000
   01/01/1998 00:55:00     71.970     0.000     1.887  4970.887     0.000
   01/01/1998 00:56:00     68.358     0.000     1.831  4970.831     0.000
   01/01/1998 00:57:00     64.759     0.000     1.773  4970.773     0.000
   01/01/1998 00:58:00     62.070     0.000     1.722  4970.723     0.000
   01/01/1998 00:59:00     60.086     0.000     1.682  4970.682     0.000
   01/01/1998 01:00:00     58.587     0.000     1.652  4970.652     0.000
  
  
  <<< Node J7 >>>
  --------------------------------------------------------------------------
                           Inflow  Flooding     Depth      Head       TSS
  Date        Time            CFS       CFS      feet      feet      MG/L
  --------------------------------------------------------------------------
   01/01/1998 00:01:00      1.054     0.000     0.038  4971.538    44.235
   01/01/1998 00:02:00      4.811     0.000     0.295  4971.795   270.756
   01/01/1998 00:03:00      8.750     0.000     0.600  4972.101   496.302
   01/01/1998 00:04:00     10.661     0.000     0.657  4972.157   549.332
   01/01/1998 00:05:00     11.498     0.000     0.619  4972.119   491.000
   01/01/1998 00:06:00     12.723     0.000     0.640  4972.140   448.682
   01/01/1998 00:07:00     13.261     0.000     0.660  4972.160   354.748
   01/01/1998 00:08:00     13.447     0.000     0.668  4972.167   260.204
   01/01/1998 00:09:00     13.501     0.000     0.670  4972.170   191.726
   01/01/1998 00:10:00     13.522     0.000     0.671  4972.171   136.079
   01/01/1998 00:11:00     14.842     0.000     0.693  4972.192   112.474
   01/01/1998 00:12:00     15.350     0.000     0.712  4972.212    79.530
   01/01/1998 00:13:00     15.539     0.000     0.719  4972.219    53.038
   01/01/1998 00:14:00     15.980     0.000     0.727  4972.227    37.319
   01/01/1998 00:15:00     16.732     0.000     0.742  4972.242    26.238
   01/01/1998 00:16:00     26.000     0.000     0.880  4972.380    24.495
   01/01/1998 00:17:00     31.246     0.000     0.995  4972.495    10.888
   01/01/1998 00:18:00     34.296     0.000     1.053  4972.553     5.904
   01/01/1998 00:19:00     37.013     0.000     1.096  4972.596     2.500
   01/01/1998 00:20:00     39.459     0.000     1.131  4972.631     0.788
   01/01/1998 00:21:00     48.050     0.000     1.225  4972.725     0.189
   01/01/1998 00:22:00     52.547     0.000     1.294  4972.794     0.008
   01/01/1998 00:23:00     55.540     0.000     1.332  4972.832     0.000
   01/01/1998 00:24:00     57.619     0.000     1.358  4972.858     0.000
   01/01/1998 00:25:00     59.370     0.000     1.379  4972.878     0.000
   01/01/1998 00:26:00     94.003     0.000     1.639  4973.140     0.000
   01/01/1998 00:27:00    106.479     0.000     1.789  4973.290     0.000
   01/01/1998 00:28:00    113.079     0.000     1.849  4973.349     0.000
   01/01/1998 00:29:00    117.493     0.000     1.885  4973.385     0.000
   01/01/1998 00:30:00    120.714     0.000     1.909  4973.409     0.000
   01/01/1998 00:31:00    186.137     0.000     2.251  4973.751     0.000
   01/01/1998 00:32:00    206.601     0.000     2.410  4973.910     0.000
   01/01/1998 00:33:00    216.285     0.000     2.472  4973.973     0.000
   01/01/1998 00:34:00    222.773     0.000     2.522  4974.022     0.000
   01/01/1998 00:35:00    226.783     0.000     2.553  4974.053     0.000
   01/01/1998 00:36:00    145.483     0.000     2.172  4973.672     0.000
   01/01/1998 00:37:00    122.796     0.000     1.960  4973.460     0.000
   01/01/1998 00:38:00    113.538     0.000     1.876  4973.376     0.000
[...]
   01/01/1998 00:54:00     80.817    15.206     1.894     0.552     0.000
   01/01/1998 00:55:00     75.966    14.900     1.832     0.530     0.000
   01/01/1998 00:56:00     72.213    14.656     1.783     0.512     0.000
   01/01/1998 00:57:00     68.407    14.390     1.734     0.494     0.000
   01/01/1998 00:58:00     65.000    14.147     1.688     0.478     0.000
   01/01/1998 00:59:00     62.300    13.954     1.651     0.464     0.000
   01/01/1998 01:00:00     60.259    13.807     1.623     0.454     0.000
  
  
  <<< Link C8 >>>
  --------------------------------------------------------------------------
                             Flow  Velocity     Depth  Capacity/       TSS
  Date        Time            CFS    ft/sec      feet   Setting       MG/L
  --------------------------------------------------------------------------
   01/01/1998 00:01:00      0.006     0.000     0.000     0.000     0.000
   01/01/1998 00:02:00      0.000     0.000     0.000     0.000     0.000
   01/01/1998 00:03:00      0.010     0.203     0.010     0.001   214.245
   01/01/1998 00:04:00      0.473     0.719     0.118     0.011   419.512
   01/01/1998 00:05:00      3.581     1.445     0.364     0.041   508.121
   01/01/1998 00:06:00     10.987     2.114     0.636     0.087   552.452
   01/01/1998 00:07:00     18.555     2.394     0.842     0.129   575.581
   01/01/1998 00:08:00     23.396     2.395     0.984     0.163   579.529
   01/01/1998 00:09:00     26.182     2.355     1.073     0.185   566.570
   01/01/1998 00:10:00     26.129     2.139     1.141     0.204   542.295
   01/01/1998 00:11:00     27.324     2.074     1.199     0.220   509.693
   01/01/1998 00:12:00     28.851     2.059     1.247     0.233   469.050
   01/01/1998 00:13:00     30.457     2.063     1.290     0.246   427.051
   01/01/1998 00:14:00     31.773     2.064     1.325     0.257   385.964
   01/01/1998 00:15:00     32.928     2.067     1.354     0.266   345.020
   01/01/1998 00:16:00     34.538     2.090     1.385     0.275   299.489
   01/01/1998 00:17:00     40.385     2.250     1.460     0.299   242.309
   01/01/1998 00:18:00     49.563     2.442     1.576     0.338   194.305
   01/01/1998 00:19:00     58.798     2.559     1.701     0.383   156.632
   01/01/1998 00:20:00     67.184     2.621     1.819     0.427   123.587
   01/01/1998 00:21:00     74.819     2.657     1.925     0.469    93.064
   01/01/1998 00:22:00     84.733     2.731     2.041     0.517    65.116
   01/01/1998 00:23:00     95.258     2.788     2.162     0.569    43.733
   01/01/1998 00:24:00    104.547     2.807     2.275     0.621    28.780
   01/01/1998 00:25:00    112.211     2.803     2.373     0.667    18.750
   01/01/1998 00:26:00    120.250     2.841     2.452     0.705    11.793
   01/01/1998 00:27:00    138.921     3.014     2.577     0.768     6.567
   01/01/1998 00:28:00    153.657     3.086     2.695     0.830     3.605
   01/01/1998 00:29:00    152.961     3.060     2.701     0.833     2.159
   01/01/1998 00:30:00    151.040     3.033     2.695     0.830     1.419
   01/01/1998 00:31:00    151.004     3.033     2.695     0.830     0.908
   01/01/1998 00:32:00    151.003     3.033     2.695     0.830     0.533
   01/01/1998 00:33:00    151.003     3.033     2.695     0.830     0.315
   01/01/1998 00:34:00    151.003     3.033     2.695     0.830     0.190
   01/01/1998 00:35:00    151.003     3.033     2.695     0.830     0.116
   01/01/1998 00:36:00    151.003     3.033     2.695     0.830     0.074
   01/01/1998 00:37:00    151.003     3.033     2.695     0.830     0.053
   01/01/1998 00:38:00    151.003     3.033     2.695     0.830     0.037
   01/01/1998 00:39:00    151.003     3.033     2.695     0.830     0.026
   01/01/1998 00:40:00    151.003     3.033     2.695     0.830     0.017
   01/01/1998 00:41:00    151.003     3.033     2.695     0.830     0.011
   01/01/1998 00:42:00    151.003     3.033     2.695     0.830     0.008
   01/01/1998 00:43:00    151.003     3.033     2.695     0.830     0.005
   01/01/1998 00:44:00    151.098     3.034     2.696     0.830     0.004
   01/01/1998 00:45:00    154.027     3.073     2.706     0.836     0.002
   01/01/1998 00:46:00    157.254     3.115     2.717     0.841     0.002
   01/01/1998 00:47:00    154.715     3.083     2.707     0.836     0.001
   01/01/1998 00:48:00    146.983     2.980     2.680     0.822     0.001
   01/01/1998 00:49:00    135.434     2.829     2.634     0.798     0.001
   01/01/1998 00:50:00    122.342     2.697     2.553     0.756     0.000
   01/01/1998 00:51:00    110.710     2.602     2.460     0.709     0.000
   01/01/1998 00:52:00     99.903     2.512     2.364     0.663     0.000
   01/01/1998 00:53:00     90.523     2.431     2.274     0.621     0.000
   01/01/1998 00:54:00     83.148     2.367     2.197     0.586     0.000
   01/01/1998 00:55:00     77.676     2.324     2.133     0.557     0.000
   01/01/1998 00:56:00     73.636     2.303     2.078     0.533     0.000
   01/01/1998 00:57:00     69.857     2.282     2.024     0.510     0.000
   01/01/1998 00:58:00     66.290     2.263     1.971     0.488     0.000
   01/01/1998 00:59:00     63.323     2.253     1.923     0.468     0.000
   01/01/1998 01:00:00     61.011     2.250     1.882     0.452     0.000
  
  
  <<< Link C9 >>>
  --------------------------------------------------------------------------
                             Flow  Velocity     Depth  Capacity/       TSS
  Date        Time            CFS    ft/sec      feet   Setting       MG/L
  --------------------------------------------------------------------------
   01/01/1998 00:01:00      0.000     0.000     0.006     0.001     0.000
   01/01/1998 00:02:00      0.000     0.000     0.045     0.004     0.000
   01/01/1998 00:03:00      0.000     0.000     0.136     0.013    27.289
   01/01/1998 00:04:00      0.001     0.001     0.241     0.025   178.819
   01/01/1998 00:05:00      0.086     0.036     0.353     0.040   284.580
   01/01/1998 00:06:00      0.894     0.230     0.514     0.065   371.208
   01/01/1998 00:07:00      3.917     0.623     0.728     0.105   447.678
   01/01/1998 00:08:00      8.868     0.980     0.935     0.151   499.348
   01/01/1998 00:09:00     14.351     1.219     1.114     0.196   527.367
   01/01/1998 00:10:00     18.660     1.335     1.245     0.233   536.873
   01/01/1998 00:11:00     21.767     1.385     1.342     0.262   533.861
   01/01/1998 00:12:00     24.272     1.415     1.418     0.286   521.039
   01/01/1998 00:13:00     26.462     1.443     1.479     0.306   500.506
   01/01/1998 00:14:00     28.390     1.468     1.529     0.322   474.589
   01/01/1998 00:15:00     30.068     1.487     1.572     0.337   444.875
   01/01/1998 00:16:00     31.527     1.473     1.629     0.357   410.477
   01/01/1998 00:17:00     33.864     1.457     1.713     0.387   368.793
   01/01/1998 00:18:00     38.632     1.498     1.826     0.430   321.021
   01/01/1998 00:19:00     45.580     1.575     1.958     0.482   272.760
   01/01/1998 00:20:00     53.586     1.653     2.095     0.540   227.749
   01/01/1998 00:21:00     61.633     1.701     2.238     0.604   186.356
   01/01/1998 00:22:00     69.545     1.713     2.393     0.677   148.545
   01/01/1998 00:23:00     78.222     1.711     2.565     0.762   114.938
   01/01/1998 00:24:00     87.043     1.700     2.739     0.854    87.209
   01/01/1998 00:25:00     97.958     1.814     2.824     0.900    67.358
   01/01/1998 00:26:00    109.188     1.967     2.870     0.925    50.861
   01/01/1998 00:27:00    121.050     2.111     2.923     0.956    36.745
   01/01/1998 00:28:00    136.757     2.292     2.990     0.994    25.210
   01/01/1998 00:29:00    141.157     2.353     3.000     1.000    17.218
   01/01/1998 00:30:00    141.191     2.353     3.000     1.000    11.736
   01/01/1998 00:31:00    141.191     2.353     3.000     1.000     7.986
   01/01/1998 00:32:00    141.191     2.353     3.000     1.000     5.404
   01/01/1998 00:33:00    141.191     2.353     3.000     1.000     3.636
   01/01/1998 00:34:00    141.191     2.353     3.000     1.000     2.435
   01/01/1998 00:35:00    141.191     2.353     3.000     1.000     1.625
   01/01/1998 00:36:00    141.191     2.353     3.000     1.000     1.082
   01/01/1998 00:37:00    141.191     2.353     3.000     1.000     0.721
   01/01/1998 00:38:00    141.191     2.353     3.000     1.000     0.481
   01/01/1998 00:39:00    141.191     2.353     3.000     1.000     0.322
   01/01/1998 00:40:00    141.191     2.353     3.000     1.000     0.215
   01/01/1998 00:41:00    141.191     2.353     3.000     1.000     0.144
   01/01/1998 00:42:00    141.191     2.353     3.000     1.000     0.096
   01/01/1998 00:43:00    141.191     2.353     3.000     1.000     0.064
   01/01/1998 00:44:00    141.191     2.353     3.000     1.000     0.043
   01/01/1998 00:45:00    141.191     2.353     3.000     1.000     0.029
   01/01/1998 00:46:00    141.191     2.353     3.000     1.000     0.019
   01/01/1998 00:47:00    141.191     2.353     3.000     1.000     0.013
   01/01/1998 00:48:00    141.191     2.353     3.000     1.000     0.009
   01/01/1998 00:49:00    140.362     2.345     2.996     0.998     0.006
   01/01/1998 00:50:00    133.735     2.275     2.965     0.980     0.004
   01/01/1998 00:51:00    123.730     2.164     2.918     0.953     0.003
   01/01/1998 00:52:00    112.635     2.029     2.870     0.925     0.002
   01/01/1998 00:53:00    101.914     1.889     2.822     0.899     0.002
   01/01/1998 00:54:00     92.649     1.777     2.768     0.869     0.001
   01/01/1998 00:55:00     86.232     1.729     2.697     0.831     0.001
   01/01/1998 00:56:00     81.473     1.719     2.619     0.790     0.001
   01/01/1998 00:57:00     77.513     1.730     2.535     0.747     0.001
   01/01/1998 00:58:00     73.611     1.740     2.451     0.705     0.000
   01/01/1998 00:59:00     69.886     1.748     2.371     0.666     0.000
   01/01/1998 01:00:00     66.478     1.746     2.305     0.635     0.000
  
  
  <<< Link C10 >>>
  --------------------------------------------------------------------------
                             Flow  Velocity     Depth  Capacity/       TSS
  Date        Time            CFS    ft/sec      feet   Setting       MG/L
  --------------------------------------------------------------------------
   01/01/1998 00:01:00      0.005     0.069     0.015     0.001    68.398
   01/01/1998 00:02:00      0.167     0.294     0.103     0.009   456.710
   01/01/1998 00:03:00      1.281     0.627     0.311     0.034   987.525
   01/01/1998 00:04:00      3.733     0.883     0.547     0.070  1379.188
   01/01/1998 00:05:00      6.830     1.063     0.739     0.107  1441.355
   01/01/1998 00:06:00      9.653     1.155     0.886     0.139  1197.797
   01/01/1998 00:07:00     12.949     1.264     1.016     0.171   819.348
   01/01/1998 00:08:00     17.123     1.394     1.145     0.205   510.500
   01/01/1998 00:09:00     22.239     1.531     1.276     0.242   359.646
   01/01/1998 00:10:00     27.668     1.649     1.399     0.280   311.371
   01/01/1998 00:11:00     32.657     1.731     1.506     0.314   300.071
   01/01/1998 00:12:00     37.205     1.792     1.598     0.346   297.328
   01/01/1998 00:13:00     40.941     1.834     1.671     0.372   295.441
   01/01/1998 00:14:00     43.939     1.862     1.729     0.393   290.567
   01/01/1998 00:15:00     46.602     1.885     1.779     0.412   281.060
   01/01/1998 00:16:00     51.040     1.906     1.868     0.446   255.202
   01/01/1998 00:17:00     57.433     1.905     2.006     0.503   220.303
   01/01/1998 00:18:00     64.493     1.907     2.148     0.564   191.646
   01/01/1998 00:19:00     72.546     1.922     2.293     0.629   169.034
   01/01/1998 00:20:00     81.472     1.942     2.440     0.699   149.476
   01/01/1998 00:21:00     92.059     1.952     2.612     0.786   128.286
   01/01/1998 00:22:00    100.904     1.922     2.779     0.875   107.099
   01/01/1998 00:23:00    110.250     1.974     2.880     0.931    88.149
   01/01/1998 00:24:00    119.731     2.017     2.982     0.989    70.790
   01/01/1998 00:25:00    114.442     1.907     3.000     1.000    57.089
   01/01/1998 00:26:00    106.438     1.774     3.000     1.000    44.520
   01/01/1998 00:27:00    101.126     1.685     3.000     1.000    33.635
   01/01/1998 00:28:00     99.446     1.657     3.000     1.000    25.012
   01/01/1998 00:29:00     98.989     1.650     3.000     1.000    18.222
   01/01/1998 00:30:00     98.855     1.648     3.000     1.000    12.991
   01/01/1998 00:31:00     84.219     1.404     3.000     1.000     9.039
   01/01/1998 00:32:00     76.227     1.270     3.000     1.000     6.423
   01/01/1998 00:33:00     74.108     1.235     3.000     1.000     4.551
   01/01/1998 00:34:00     73.766     1.229     3.000     1.000     3.199
   01/01/1998 00:35:00     73.701     1.228     3.000     1.000     2.231
   01/01/1998 00:36:00     92.687     1.545     3.000     1.000     1.523
   01/01/1998 00:37:00    102.448     1.707     3.000     1.000     0.988
   01/01/1998 00:38:00    105.076     1.751     3.000     1.000     0.645
   01/01/1998 00:39:00    105.792     1.763     3.000     1.000     0.425
   01/01/1998 00:40:00    106.027     1.767     3.000     1.000     0.282
   01/01/1998 00:41:00    110.239     1.837     3.000     1.000     0.189
   01/01/1998 00:42:00    113.192     1.887     3.000     1.000     0.127
   01/01/1998 00:43:00    114.186     1.903     3.000     1.000     0.086
   01/01/1998 00:44:00    114.556     1.909     3.000     1.000     0.058
   01/01/1998 00:45:00    114.702     1.912     3.000     1.000     0.040
   01/01/1998 00:46:00    117.435     1.957     3.000     1.000     0.027
   01/01/1998 00:47:00    121.892     2.032     3.000     1.000     0.018
   01/01/1998 00:48:00    125.543     2.092     3.000     1.000     0.012
   01/01/1998 00:49:00    128.124     2.135     3.000     1.000     0.008
   01/01/1998 00:50:00    129.874     2.165     3.000     1.000     0.006
   01/01/1998 00:51:00    131.588     2.193     3.000     1.000     0.004
   01/01/1998 00:52:00    133.296     2.222     3.000     1.000     0.003
   01/01/1998 00:53:00    134.624     2.244     3.000     1.000     0.002
   01/01/1998 00:54:00    133.008     2.234     2.987     0.992     0.001
   01/01/1998 00:55:00    129.066     2.211     2.953     0.973     0.001
   01/01/1998 00:56:00    124.405     2.189     2.908     0.947     0.001
   01/01/1998 00:57:00    119.365     2.165     2.858     0.919     0.001
   01/01/1998 00:58:00    114.175     2.137     2.807     0.891     0.000
   01/01/1998 00:59:00    107.481     2.106     2.734     0.851     0.000
   01/01/1998 01:00:00    102.013     2.116     2.645     0.803     0.000
  
  
  <<< Link C11 >>>
  --------------------------------------------------------------------------
                             Flow  Velocity     Depth  Capacity/       TSS
  Date        Time            CFS    ft/sec      feet   Setting       MG/L
  --------------------------------------------------------------------------
   01/01/1998 00:01:00      0.004     0.000     0.009     0.000    80.216
   01/01/1998 00:02:00      0.154     2.071     0.088     0.004   572.656
   01/01/1998 00:03:00      1.782     3.302     0.329     0.030  1146.239
   01/01/1998 00:04:00      6.241     4.853     0.595     0.073  1447.310
   01/01/1998 00:05:00     12.294     5.999     0.822     0.116  1364.060
   01/01/1998 00:06:00     18.188     6.793     0.990     0.151  1058.497
   01/01/1998 00:07:00     23.904     7.384     1.132     0.183   721.075
   01/01/1998 00:08:00     29.656     7.869     1.260     0.213   486.683
   01/01/1998 00:09:00     35.835     8.310     1.388     0.243   358.574
   01/01/1998 00:10:00     42.252     8.723     1.510     0.273   297.027
   01/01/1998 00:11:00     48.466     9.079     1.620     0.301   266.851
   01/01/1998 00:12:00     54.482     9.392     1.722     0.327   249.909
   01/01/1998 00:13:00     59.545     9.639     1.804     0.349   238.403
   01/01/1998 00:14:00     63.603     9.824     1.869     0.365   227.911
   01/01/1998 00:15:00     67.002     9.967     1.922     0.379   216.304
   01/01/1998 00:16:00     72.393    10.130     2.012     0.403   191.159
   01/01/1998 00:17:00     82.714    10.485     2.170     0.445   160.659
   01/01/1998 00:18:00     93.744    10.838     2.331     0.488   136.859
   01/01/1998 00:19:00    104.772    11.149     2.488     0.530   119.469
   01/01/1998 00:20:00    116.011    11.430     2.647     0.573   105.756
   01/01/1998 00:21:00    128.714    11.694     2.830     0.621    90.919
   01/01/1998 00:22:00    143.824    11.996     3.043     0.677    75.401
   01/01/1998 00:23:00    156.259    12.202     3.224     0.723    62.135
   01/01/1998 00:24:00    168.490    12.359     3.414     0.769    50.365
   01/01/1998 00:25:00    174.733    12.474     3.503     0.790    39.459
   01/01/1998 00:26:00    177.616    12.485     3.556     0.803    28.301
   01/01/1998 00:27:00    178.655    12.505     3.570     0.806    20.165
   01/01/1998 00:28:00    179.037    12.511     3.576     0.808    14.737
   01/01/1998 00:29:00    179.136    12.512     3.578     0.808    10.710
   01/01/1998 00:30:00    179.164    12.512     3.578     0.808     7.637
   01/01/1998 00:31:00    183.645    12.527     3.663     0.827     4.502
   01/01/1998 00:32:00    184.336    12.545     3.671     0.829     2.833
   01/01/1998 00:33:00    184.665    12.550     3.676     0.830     1.951
   01/01/1998 00:34:00    184.720    12.550     3.677     0.831     1.365
   01/01/1998 00:35:00    184.726    12.550     3.677     0.831     0.951
   01/01/1998 00:36:00    178.876    12.512     3.573     0.807     0.835
   01/01/1998 00:37:00    178.009    12.505     3.558     0.803     0.614
   01/01/1998 00:38:00    177.428    12.500     3.548     0.801     0.412
   01/01/1998 00:39:00    177.263    12.498     3.545     0.800     0.273
   01/01/1998 00:40:00    177.208    12.497     3.545     0.800     0.181
   01/01/1998 00:41:00    175.576    12.482     3.517     0.794     0.127
   01/01/1998 00:42:00    175.010    12.477     3.507     0.792     0.088
   01/01/1998 00:43:00    174.752    12.474     3.503     0.791     0.060
   01/01/1998 00:44:00    174.650    12.473     3.502     0.790     0.041
   01/01/1998 00:45:00    174.609    12.472     3.501     0.790     0.028
   01/01/1998 00:46:00    173.406    12.462     3.481     0.785     0.020
   01/01/1998 00:47:00    171.985    12.448     3.457     0.780     0.014
   01/01/1998 00:48:00    170.814    12.436     3.438     0.775     0.010
   01/01/1998 00:49:00    169.980    12.427     3.425     0.772     0.007
   01/01/1998 00:50:00    169.397    12.420     3.415     0.770     0.005
   01/01/1998 00:51:00    168.722    12.413     3.404     0.767     0.003
   01/01/1998 00:52:00    168.107    12.407     3.395     0.765     0.002
   01/01/1998 00:53:00    167.628    12.402     3.387     0.763     0.002
   01/01/1998 00:54:00    166.480    12.390     3.369     0.758     0.001
   01/01/1998 00:55:00    162.794    12.347     3.311     0.744     0.001
   01/01/1998 00:56:00    157.680    12.282     3.231     0.724     0.001
   01/01/1998 00:57:00    151.508    12.191     3.140     0.701     0.001
   01/01/1998 00:58:00    145.197    12.089     3.048     0.678     0.000
   01/01/1998 00:59:00    138.598    11.970     2.953     0.653     0.000
   01/01/1998 01:00:00    131.487    11.835     2.852     0.627     0.000
  

  Analysis begun on:  Thu Dec 19 17:07:40 2024
  Analysis ended on:  Thu Dec 19 17:07:40 2024
  Total elapsed time: < 1 sec